# ORCA input file
# SCF done       -232.647476077868          0.000748811633
! CAM-B3LYP def2-SVP def2/J RIJCOSX Grid4 TightSCF
%maxcore 5000
%tddft
    Mode sTDDFT
    Ethresh 5.0
    maxcore 5000
end

%pal
  nprocs 6
  end
* xyz 0 1
   C       -5.67005        -1.77157        13.75326
   C       -5.79410        -2.90126        14.51193
   F       -5.73434        -2.82550        15.84777
   C       -5.98517        -4.15766        13.90205
   F       -6.10122        -5.24884        14.67084
   C       -6.05127        -4.26649        12.54141
   C       -5.92663        -3.12063        11.73181
   C       -5.73241        -1.84967        12.34712
   C       -5.60217        -0.68654        11.55512
   C       -5.66419        -0.79262        10.19012
   C       -5.85523        -2.06468         9.58439
   C       -5.98547        -3.20527        10.32318
   C       -5.87538        -1.92174         8.11302
   O       -6.04994        -2.81737         7.31725
   C       -5.57637        -0.48719         7.85514
   C       -5.55812         0.20673         9.13468
   C       -5.53905         1.56328         9.31565
   C       -5.54856         2.51565         8.27332
   N       -5.58008         3.34781         7.48309
   C       -5.55561         2.18808        10.58064
   N       -5.56187         2.74423        11.58467
   C       -5.14015         0.04974         6.68325
   C       -5.15990        -0.53276         5.37118
   C       -4.13188        -0.18359         4.47695
   C       -4.06708        -0.72063         3.21072
   C       -5.06940        -1.59614         2.80659
   C       -6.13181        -1.91080         3.67278
   C       -6.18390        -1.39145         4.94166
   C       -7.10870        -2.84904         3.00248
   C       -7.16381        -4.18810         3.74601
   C       -8.50445        -2.22679         2.90736
   C       -6.47874        -3.01388         1.63843
   C       -6.92396        -3.74723         0.56943
   C       -6.16563        -3.77508        -0.61387
   C       -4.95727        -3.06104        -0.68093
   C       -4.51521        -2.31712         0.39197
   C       -5.27692        -2.28497         1.55348
   C       -6.63148        -4.51910        -1.74872
   C       -5.99135        -4.77559        -2.96303
   C       -6.79597        -5.55328        -3.87978
   N       -6.32621        -5.87924        -5.08879
   C       -5.11894        -5.47590        -5.40620
   C       -4.61989        -5.85224        -6.74935
   O       -5.28315        -6.49504        -7.53834
   C       -3.25498        -5.39130        -7.05548
   C       -2.50739        -4.67667        -6.20779
   C       -2.95763        -4.25934        -4.86739
   O       -2.26272        -3.59106        -4.13013
   C       -4.31991        -4.71185        -4.49701
   N       -4.76031        -4.37815        -3.30699
   C       -8.05500        -5.88386        -3.37231
   S       -8.20706        -5.24174        -1.77197
   C       -9.12134        -6.59760        -4.01389
   C      -10.37624        -6.71668        -3.39409
   C      -11.42709        -7.35241        -4.01855
   C      -11.22838        -7.88688        -5.28675
   C       -9.96751        -7.79655        -5.90388
   C       -8.92092        -7.16256        -5.28546
   C       -9.98458        -8.45714        -7.26166
   C       -9.59238        -7.47243        -8.36646
   C       -9.05646        -9.67711        -7.28206
   C      -11.42927        -8.88590        -7.36609
   C      -12.06783        -9.50528        -8.41015
   C      -13.42072        -9.85510        -8.28105
   C      -14.11271        -9.51543        -7.10880
   C      -13.48352        -8.86249        -6.07122
   C      -12.13291        -8.55931        -6.19147
   C      -14.08035       -10.49934        -9.38475
   C      -15.12635       -11.36073        -9.37323
   C      -15.90098       -11.58994       -10.62553
   O      -15.57909       -11.26899       -11.74530
   C      -17.15783       -12.23342       -10.19119
   C      -18.26273       -12.54124       -10.93143
   C      -19.37243       -13.13853       -10.29324
   C      -19.31681       -13.39991        -8.89309
   C      -20.43004       -13.99125        -8.26215
   C      -21.54323       -14.31125        -8.98712
   C      -21.59653       -14.05339       -10.37194
   C      -20.53473       -13.47919       -11.01250
   F      -22.70174       -14.37634       -11.05684
   F      -22.59915       -14.87481        -8.38592
   C      -18.15728       -13.07463        -8.15321
   C      -17.08926       -12.50562        -8.79482
   C      -15.77206       -12.10424        -8.30744
   C      -15.17777       -12.56298        -7.16306
   C      -13.81435       -12.37055        -6.85345
   N      -12.70417       -12.29811        -6.57242
   C      -15.83874       -13.35600        -6.20268
   N      -16.34390       -13.98348        -5.38512
   H       -5.52542        -0.81762        14.23589
   H       -6.19752        -5.23530        12.09003
   H       -5.44694         0.25938        12.04838
   H       -6.12912        -4.15897         9.83835
   H       -4.65987         1.02099         6.73544
   H       -3.36385         0.49971         4.80966
   H       -3.26029        -0.45978         2.54296
   H       -7.01285        -1.60889         5.59363
   H       -7.48534        -4.03328         4.77242
   H       -6.17845        -4.64838         3.76302
   H       -7.85778        -4.86580         3.25465
   H       -8.91309        -2.06905         3.90215
   H       -9.17345        -2.88394         2.35717
   H       -8.45746        -1.26879         2.39368
   H       -7.84637        -4.30810         0.62407
   H       -4.37934        -3.10178        -1.58976
   H       -3.58889        -1.76775         0.32446
   H       -2.88460        -5.67151        -8.03253
   H       -1.50879        -4.35625        -6.47326
   H      -10.51657        -6.28592        -2.41257
   H      -12.38796        -7.42619        -3.53222
   H       -7.95632        -7.07837        -5.75771
   H       -8.56642        -7.14315        -8.22389
   H      -10.24534        -6.60216        -8.34843
   H       -9.67221        -7.94766        -9.34083
   H       -8.02904        -9.36343        -7.11672
   H       -9.11898       -10.17956        -8.24387
   H       -9.34203       -10.38202        -6.50451
   H      -11.53969        -9.76051        -9.31672
   H      -15.16896        -9.73405        -7.04029
   H      -14.03272        -8.59312        -5.18175
   H      -13.73580       -10.21628       -10.37538
   H      -18.28952       -12.33228       -11.99003
   H      -20.40472       -14.19899        -7.20383
   H      -20.59081       -13.28800       -12.07269
   H      -18.14473       -13.27548        -7.09370
*
