115
 SCF done       -219.818852360988          0.000940847173
C          -7.40206471240400   -1.13759775530848   -3.55276656120024
C          -8.20407895226668   -0.29640959505879   -2.80383145680980
C          -8.09311409942491    1.08088830651691   -3.01034922080353
C          -8.88971563252186    1.96509837562695   -2.24199945144707
N          -9.53443924155281    2.67015191464995   -1.61091984191536
C          -7.20292228085808    1.60459002015482   -3.96654068164888
C          -7.11954060023699    3.00394478579585   -4.16078528260694
N          -7.03492089651559    4.13350469274334   -4.32916859874527
C          -6.39870812646535    0.74789701918450   -4.72310531451614
C          -6.50377186832460   -0.60692552762235   -4.50008085810936
C          -5.75174879688877   -1.71667529186425   -5.14181479342683
O          -4.90582918871645   -1.62867970961712   -6.00343768267747
C          -6.21076613969010   -2.93774470946720   -4.45156981431297
C          -7.32110181600469   -2.59600127608181   -3.60796739380237
C          -8.28721379784533   -3.46964157578381   -3.16559481814924
C          -9.32219271457597   -3.12775648142326   -2.27842157099058
N         -10.14424479307552   -2.90681137803443   -1.50773966906320
C          -8.37555067310826   -4.77583398667857   -3.68034785392010
N          -8.50776988570681   -5.79903749192814   -4.18718239748871
C          -5.51514593403254   -4.10599348679070   -4.64674631346712
N          -5.45162476803765   -5.21171458893234   -3.88534636519983
C          -5.88970451177902   -5.21554093010749   -2.54441241857717
C          -6.54799288447413   -6.30828388154885   -1.98400681979825
S          -6.79736604022179   -7.79408721730342   -2.88541754175407
C          -5.55872478977985   -7.63538593794015   -4.13279780297563
C          -5.20383007724090   -8.78574556746934   -4.82734890539809
C          -4.22827844090667   -8.74097876822507   -5.80347208842633
C          -3.56093359870754   -7.55133917246837   -6.04980953242266
C          -3.92172570692228   -6.40320533821892   -5.37278670617589
C          -4.96101379020607   -6.41492483991080   -4.44563586880138
C          -7.09054941237636   -6.21563092359655   -0.70681533218340
C          -6.94754215754127   -5.05994828648049    0.03278443734270
C          -6.18616000170594   -4.01497955662279   -0.47186701043804
C          -5.65473716725247   -4.09949548479107   -1.74145270614035
C          -2.24982240952062   -5.51489994426418   -1.77066109456105
C          -3.00163235637757   -6.69272611750267   -1.24799004083172
C          -2.97566447450560   -7.91467142937756   -1.90965391424500
C          -3.72992830198999   -9.06234172708647   -1.42211519623360
N          -3.75580151221048  -10.15549084499229   -2.23462941954830
C          -2.91783925240990  -10.26662985943918   -3.32851590914489
C          -2.12025636829721   -9.16645324663754   -3.65113771330881
N          -2.20029786177717   -8.01373905706654   -3.00918610880902
C          -1.20887916255347   -9.26328108330443   -4.73590370735255
N          -0.47590624239156   -9.35155584650806   -5.61101129406434
C          -2.90914192382053  -11.47094491947008   -4.03117581082570
N          -2.89044160962207  -12.47346037428148   -4.59606722663739
C          -4.32803275450958   -9.01606541733207   -0.17498156575169
C          -4.40331582379952   -7.77122770611869    0.48802884287770
C          -3.72763540489845   -6.61637148573490   -0.05197682496446
N          -3.86497098629176   -5.55245997631848    0.73187259687854
S          -4.76210843926232   -5.94457573461770    2.01915594764340
N          -5.03144898894098   -7.50780705620439    1.62456490912329
N          -4.93783783627523  -10.19081913443948    0.52524859778817
C          -4.29955084457694  -11.44368699356396    0.08695769212979
C          -2.90930579297030  -11.53241101310747    0.18625629593827
S          -1.99917899740118  -10.31014870721367    1.07430368890860
C          -3.24635753109857  -10.03859547269071    2.29612998462561
C          -2.84427997531391   -9.82622125850413    3.60761690961377
C          -3.78806297832046   -9.66770731445963    4.60102024771209
C          -5.13305349518100   -9.72917375306475    4.27873660851766
C          -5.53895316727572   -9.91655291831470    2.96920010868227
C          -4.59844288590354  -10.06702099444779    1.96068357386540
C          -2.23041217380022  -12.61076644373118   -0.36525144146431
C          -2.93175710081240  -13.63236118633451   -0.97356900916931
C          -4.31629335613071  -13.60025080634787   -0.97839713043338
C          -4.99630033040148  -12.51499710067276   -0.45228217903529
C          -6.39954303178068  -10.07898060644040    0.23594978097761
C          -7.27536613452578  -11.18569835030014    0.71388945380102
C          -8.45195991595069  -11.60429643225481    0.20358453767282
C          -9.32601415783630  -12.42184955599006    1.11882145913058
O          -8.97394997164729  -12.95127177022930    2.14507796141795
C         -10.66378166721135  -12.36567590740268    0.51792274065760
C         -11.84663266119789  -12.87573028606713    1.00772959973929
C         -13.00684442439974  -12.70031950225246    0.25146262311859
C         -12.94616483101066  -12.01404054042673   -0.98203984786870
C         -11.74668556534887  -11.50905062132784   -1.47502130348936
C         -10.59032275419624  -11.68799316839972   -0.72412057369475
C          -9.21440403588818  -11.33006279209108   -0.99940732527158
C          -8.70825012546315  -11.02950285486125   -2.25726773461419
C          -7.35016524774151  -11.10101629714941   -2.54890416614036
N          -6.22575212497726  -11.22927444173447   -2.78246499142917
C          -9.50111196579913  -10.78204020170672   -3.39406882345841
N         -10.09816893782186  -10.57024797632051   -4.35124791262569
C         -14.13579187197680  -11.84415969983781   -1.73317285872772
N         -15.09249002432744  -11.70224739567446   -2.34562321829989
C         -14.23918016449756  -13.20874246958413    0.71979797028420
N         -15.22660720450343  -13.63241329731871    1.11767263312115
H          -8.89785539111435   -0.67028671868568   -2.06680132198646
H          -5.71475073440609    1.13753585094671   -5.46166466055813
H          -4.89622765365638   -4.11442954247109   -5.53556749214931
H          -2.26883793728432   -5.51122990340638   -2.85738772748968
H          -5.70879921097831   -9.71127535675863   -4.59590636152513
H          -3.97245597809496   -9.63571142520425   -6.34922100109493
H          -2.76073471044254   -7.51682879791665   -6.77126034981451
H          -3.38912617613249   -5.48649108694861   -5.57185764027993
H          -7.65236817766169   -7.05283765354454   -0.32125191818979
H          -7.41224970673466   -4.97886715786584    1.00241081026428
H          -6.01352165582907   -3.13240292636964    0.12260971121161
H          -5.06141085882510   -3.28775524947845   -2.13343190236745
H          -2.67662131769277   -4.59979843244317   -1.36936476775064
H          -1.20630824866173   -5.57290465843986   -1.46191145597375
H          -4.54237496624853  -10.80723389273973   -2.21340417111833
H          -1.78892968554511   -9.79212031624002    3.82702943265399
H          -3.47628821938049   -9.50136583504137    5.61955207248200
H          -5.88177713664631   -9.61048965905639    5.04517282127980
H          -6.59397399174297   -9.89835567807593    2.76497945064995
H          -1.15437900927594  -12.63375949924704   -0.29949957912651
H          -2.40372005204865  -14.45937274520604   -1.41880668968568
H          -4.87904434601528  -14.41130225755663   -1.41009770128135
H          -6.07129251056298  -12.51012402656466   -0.48807183026560
H          -6.49916845420352   -9.92399270313931   -0.83977358912996
H          -6.70233371804503   -9.14239393756982    0.72389685004521
H          -7.00790110121324  -11.64702973664380    1.65827438582866
H         -11.87452894127904  -13.40000222499028    1.95090716533323
H         -11.73984946087582  -10.98727170288814   -2.41893872625363
