91
 SCF done       -219.745703731847          0.000893711268
C          -0.08488810523530   -1.02768935012875    2.33623604887344
O           0.75038155667656   -0.52137206749337    1.62459431127548
C          -1.46170818350389   -0.54714851855723    2.57389024157243
C          -2.26481223840888    0.46448968643681    2.16013009804036
F          -1.99186004567423    1.45039153650845    1.32867524598908
S          -3.85640364423028    0.36946061423096    2.87125033777461
C          -3.42669491918157   -1.05669378774754    3.73861937968612
C          -2.13994088652586   -1.41772706200326    3.48885533798215
C          -1.22319124342524   -2.47793253941343    3.87112776093450
N          -1.36697729374645   -3.44065745420324    4.70724143317542
N          -2.50192554961627   -3.78720787109816    5.34415336713900
O          -2.36294132490728   -4.07887471393413    6.50951260745927
O          -3.53085997453461   -3.87078028479063    4.71119068855592
C           0.01327401413573   -5.28411044103695    7.29196406475932
O           0.54152021719013   -4.96239514245120    6.32629986452565
O          -0.46395372333646   -5.63123661157181    8.26879564200143
C           0.03236664569858   -2.24495394181660    3.17558650446942
C           1.10104062924288   -3.06971058054000    3.41695436409050
C           2.39965059616091   -3.08177252068371    2.88921040320031
C           3.00603363445589   -2.34584669533352    1.87162948087323
C           4.33050553255611   -2.70376004448803    1.68759424488762
C           4.76244093181792   -3.72159439113442    2.57856438876835
S           3.52336542004611   -4.24444083627109    3.61409704438245
C           6.12697553457008   -3.98757829432747    2.34279588633077
C           6.56722230415840   -3.14557201379864    1.29782596533936
C           5.45321311854692   -2.32656350951548    0.84334571873879
C           5.46996023997741   -1.41767892935686   -0.17197090285171
C           4.32988598169033   -0.69143409659238   -0.58279770173042
N           3.42287049640216   -0.09873384214788   -0.95524953930996
C           6.64323872993912   -1.14811120319720   -0.91050583085255
N           7.59216569107942   -0.92148123979652   -1.51253377385313
C           7.91026400782136   -3.31930794948252    1.00080525555907
C           8.50153386418517   -4.28215654823705    1.81292223957014
S           7.37626453594465   -4.99108074387562    2.95404999597250
C           9.86042213130531   -4.68627546242041    1.80041527850937
C          10.33122880619407   -5.66277886633363    2.71091481389810
C          11.70193107129549   -6.06464267193236    2.75931853034817
N          12.09162857550503   -6.98939690116380    3.65315562504699
C          11.20871549179888   -7.50745800743144    4.46132749660723
C           9.85647137597806   -7.11202817090299    4.41283222088959
N           9.44703877517860   -6.21531403802330    3.55880919373641
C          12.68218071442789   -5.51637022673931    1.89749904082775
C          12.21535700693245   -4.55913550462557    0.96945708192643
C          10.82836723836718   -4.15075675031829    0.92212100353676
N          10.62371876969176   -3.23401397342753   -0.02670889412636
S          12.00312293389317   -2.91958225330545   -0.77470897247875
N          12.94267771483897   -3.91612205650136    0.05294601120166
C          14.03912051051564   -5.91367774538061    2.00034974581008
C          15.10272568472918   -5.45504309551095    1.22910355202530
C          16.30481100634054   -6.02831331791548    1.61221374032831
C          16.15997311046808   -6.93631821684066    2.68613686260639
S          14.53328080192870   -7.07991699122805    3.21155939721724
C          17.43457315967257   -7.45112979619157    3.00391020907757
C          18.39098372115468   -6.86248646833028    2.13950625996622
C          17.70682534819353   -5.95577618885238    1.23417767462993
C          18.26793667585284   -5.21345635968439    0.23888419988815
C          17.49731147524798   -4.38147678176544   -0.60087650871664
N          16.87337644676328   -3.69919707277904   -1.27859551531120
C          19.66201496950842   -5.20928638681306    0.01236469346983
N          20.79758972158242   -5.17840486550262   -0.13798696204472
C          19.67685477409944   -7.32450181884624    2.35202530422020
C          19.73750803780030   -8.27680305000619    3.36441460617447
S          18.14384959317327   -8.55529858289245    4.08636749846183
C          20.81919995699946   -9.01645392911764    3.86512185915401
C          22.07563322009136   -9.22780611120598    3.36547174967413
C          23.00602250603416  -10.07825614550706    4.16363648542820
O          22.78684934123367  -10.54061685094955    5.25653197080682
C          24.20656202781499  -10.21333410249014    3.32402457470411
C          25.42841617253567  -10.79930405771947    3.38126176008181
S          26.36603636572680  -10.49780414200557    1.94200714520704
C          25.08625087209215   -9.56902511564444    1.25637246505460
C          24.01402825040457   -9.50593789553448    2.09132713700264
C          22.69428164646453   -8.88491860216146    2.10000106291144
N          22.09245327834126   -8.25133755602267    1.15814504896190
N          22.61285922016166   -7.94081900672342   -0.05577380721832
O          21.86742745956992   -8.14873577394610   -0.98336465686820
O          23.70498081768406   -7.43254237146607   -0.11717558548551
C          19.54490870469926   -9.27323042721664   -0.25715389863702
O          20.10957936685884  -10.21921693027117    0.05092035236933
O          18.91849428093546   -8.35286995045316   -0.52421226797105
F          25.95105128682814  -11.52462667299401    4.35116698907959
H          -4.15984647623715   -1.54235108275017    4.35264919401464
H           0.90187865829446   -3.83295342778647    4.16319006753224
H           2.47736996418669   -1.58682008006083    1.32138801448654
H           8.46775709183752   -2.79222968110252    0.24862637532482
H          11.56235593544081   -8.24849823577330    5.16341526828232
H           9.11390506270929   -7.53289929365617    5.07508699401536
H          14.96597037212433   -4.73789137254167    0.44072203467782
H          20.54953364113133   -6.99843328260947    1.82177554403484
H          20.63363437369085   -9.54511524306834    4.79714187145505
H          25.22854441008847   -9.11017964971987    0.29728289075461
