93
 SCF done       -228.774603535293          0.000621373008
C          20.88317483251290   -3.35702411682902    5.83458936418265
O          19.75061566790036   -3.54195239530987    6.23145849331702
C          22.07940460028956   -3.03813199229337    6.62942013881351
C          22.41775065168940   -2.83990336626359    7.92922195123154
F          21.64560641952972   -2.88200971506639    8.99717857086255
S          24.11565864962099   -2.49279576755465    8.11602280492265
C          24.37054549639634   -2.61573248111682    6.41537251482446
C          23.21413037102387   -2.90256668361924    5.76358244865311
C          22.77653900643807   -3.11586294989431    4.39265856761788
N          23.43923584414138   -3.00562245477563    3.30477222757467
N          24.76654267469839   -2.75352303821310    3.22507380603942
O          25.07090669579582   -1.73282173856550    2.65569654480981
O          25.52959409664399   -3.58795722786301    3.64824225058068
C          23.85945867927834    0.50671576842498    3.60958342358653
O          24.13396218631929    1.19589649176923    2.74410383326476
O          23.55675494310694   -0.15175389159715    4.50016954448717
C          21.35329798168149   -3.40961916748387    4.44050426756494
C          20.61772807958273   -3.67046962254140    3.31540056639206
C          19.24815147049274   -3.93372176284143    3.17304513282256
C          18.65227019906602   -4.16050333844073    1.92494505051554
C          17.29015796024877   -4.35759878240979    2.01990267440351
C          16.82830083959823   -4.28431042071328    3.36058243723741
S          18.07022828039116   -3.98423679538677    4.48553320340707
C          15.42615614503555   -4.45854090433644    3.35418696082607
C          14.99947284802509   -4.64249869384051    2.01892997574923
C          16.15605359739797   -4.59346716809429    1.14076827593883
C          16.16846136685922   -4.72688882611984   -0.21624830433588
C          17.36320736911441   -4.65344137031322   -0.96379534999989
N          18.33248984996504   -4.59295109389209   -1.57274180455890
C          14.98852052237021   -4.94380223103344   -0.95982571451530
N          14.03205483084264   -5.11751110285367   -1.56759126092641
C          13.62537960991824   -4.78254961945511    1.90664484905584
C          12.99373899791355   -4.70253542373282    3.14438500978217
S          14.12665344606081   -4.47076143901602    4.46596805910372
C          11.59632200445953   -4.73469138250901    3.38232518202473
C          11.07470511004814   -4.60118164687867    4.69006899512178
C           9.66225674630837   -4.51770971009484    4.94975895709373
N           9.22905390350581   -4.37513761117493    6.20658011055880
C          10.08887138352533   -4.31519804655643    7.19422948029595
C          11.49584534192561   -4.39675031569019    6.93561842999382
N          11.93810429107610   -4.53317596034341    5.70932669679925
C          12.42385756449014   -4.33269160256905    8.00527072943208
N          13.14733022408686   -4.27696376269616    8.89075695572400
C           9.60772509620359   -4.16990231173618    8.51948352352923
N           9.24338160247620   -4.05350668975459    9.59867848249317
C           8.69815437899901   -4.55719557874897    3.91565576462451
C           9.21267752965815   -4.76388618994754    2.61397431798095
C          10.63234758267787   -4.85134458806910    2.35288329253347
N          10.87622583971035   -5.03191873391207    1.05388935695918
S           9.49305895137069   -5.09157246047942    0.24952994631174
N           8.50370789497273   -4.88759894380991    1.49111852832694
C           7.32404421921554   -4.34572146245012    4.18980878126726
C           6.29305545386284   -4.27536660851425    3.25624564747758
C           5.07884826029853   -3.97286057642384    3.84897469024881
C           5.17698863746245   -3.81967758503450    5.25135180716909
S           6.77111404628575   -4.05020339121624    5.82880652168743
C           3.90767840862542   -3.45309941299152    5.74616238122751
C           3.00207751140658   -3.37725619139349    4.66052712118863
C           3.71233457054419   -3.69880132165536    3.43543456107492
C           3.21540733521248   -3.67297873593329    2.16690539574240
C           4.01565044907901   -3.96572419346246    1.04176723749314
N           4.66673268968633   -4.21290301745319    0.13122909227305
C           1.86314214496437   -3.36175622527787    1.90550290797473
N           0.75919707717798   -3.13013933999917    1.70315843995535
C           1.74812094136475   -2.91949705863456    5.02983471883247
C           1.67677748119004   -2.61777883220226    6.38468269505426
S           3.18549464211632   -3.00589074338072    7.22132124364700
C           0.64724231249719   -1.99764778432375    7.11843095668217
C          -0.28213905380337   -1.10141516719373    6.67175071056615
C          -1.25224974508946   -0.50721423434654    7.63715193746148
O          -1.43213169738569   -0.86085065109646    8.77545509093645
C          -1.89482917514519    0.58632267101873    6.88913762329777
C          -2.83958587408256    1.53849944319667    7.09063146502049
S          -3.08588545967354    2.52622936726877    5.67360111600951
C          -1.89420986552937    1.64117182009481    4.80066271016044
C          -1.35011037939830    0.65325104642523    5.56272372500163
C          -0.36357895646372   -0.40430014612494    5.40161128760814
N           0.42608042945018   -0.66041591766572    4.42015382029020
N           0.47417975475388   -0.03466592609212    3.22435751478464
O          -0.54863127792656    0.25920223415568    2.65600823231550
O           1.59633038918802    0.10494556889444    2.78982785542710
C           3.41422150150368    0.11846418456517    4.74620162416685
O           2.75850004926383    0.86789877230345    5.30955896727313
O           4.10582437780137   -0.64420628211239    4.24663623646042
F          -3.54920111080254    1.77968565665310    8.17508253762724
H          25.35909559464477   -2.47923539311356    6.02262423316082
H          21.18018478739598   -3.66048897225662    2.38751886277328
H          19.21952073621902   -4.16625243554306    1.01119687026913
H          13.07489720313334   -4.92548471636279    0.99504587678688
H           6.46457445444979   -4.42880599523518    2.20665217667725
H           0.90531209552280   -2.83533556574735    4.37310365892723
H           0.62904887505785   -2.17790433589807    8.18932783447260
H          -1.69646348929772    1.88983631139890    3.77594457213633
