123
 SCF done       -220.991335123386          0.001821562822
C           2.20986928540703    2.32820432300016   -2.56280660710606
C           1.36203956653721    2.96375579620071   -3.42949260176574
C           1.66347438004167    4.25055069918191   -3.89660471338328
C           2.80790793977777    4.88337044235369   -3.49169781197443
C           3.70061549249831    4.25917862659946   -2.59866834737684
C           4.87945337376448    4.91402455633820   -2.16765441894159
C           5.72060068212753    4.27698150301775   -1.29939826174373
C           5.41313112292753    2.96421369143438   -0.83572039832170
C           4.28189250454901    2.31227082605467   -1.22911985159984
C           3.39384303708336    2.95204649022079   -2.12517537108631
C           6.49258261981835    2.50832756429581    0.05781347342819
O           6.58617114666091    1.41882423267703    0.60470878759946
C           7.48791431429286    3.58290080069951    0.06609827540901
C           6.95352066993362    4.70919506984548   -0.65001781733539
C           7.38726413839994    6.00946858490733   -0.52694281206477
C           8.29632274141001    6.38164339984384    0.47777035644946
N           8.95294252642920    6.69012378614714    1.37062638485210
C           6.87970037874411    7.08544308916321   -1.27309963331447
N           6.52234966425366    7.98519299595556   -1.89105726232443
C           8.72354478106680    3.34389466456958    0.62564127936517
N           9.89351803393182    3.94408066818660    0.37045381517825
C          10.09313013290963    4.70305429226150   -0.80580418843130
C          10.89355532813274    5.84333863410932   -0.81565019350269
S          11.74102176493309    6.35848911095746    0.62982761927203
C          11.92283888315067    4.79123697902728    1.40864253133261
C          13.00474130033684    4.62166417629021    2.26585771537586
C          13.19325974123687    3.42681630658793    2.92852671168368
C          12.30278516448177    2.38447013814675    2.72315285193452
C          11.22741492463039    2.54240770233875    1.87104223409671
C          11.01177006873985    3.75093064371595    1.21169852396662
C          11.03491721962271    6.58960722265522   -1.97990887878413
C          10.41985448393075    6.18273234753815   -3.14453827770360
C           9.69348667363740    5.00030653902712   -3.16294915153735
C           9.53918388808875    4.26410249862379   -2.00704862649027
C           8.66641181643034   -0.02876298997727   -1.58180705182029
C           9.79492786134931   -0.70808442719113   -0.89181661266003
C          11.01510200763320   -0.07435728928738   -0.64609704384238
C          12.07448308956408   -0.72363572048755    0.09130249023897
N          13.20123616623749   -0.06208094353349    0.40259242556645
C          13.35840977932413    1.15552611747294   -0.04559795549653
C          12.36587431137898    1.75440495193323   -0.90131898603178
N          11.23044917779228    1.16365998559261   -1.14936055146734
C          12.66961973408375    3.00067570675301   -1.50061827817395
N          12.98300190794689    3.99525252259155   -1.97596789525133
C          14.50701663787564    1.89567337864778    0.31818907566887
N          15.41223388796427    2.53612475446127    0.60942811921357
C          11.97598102552872   -2.06996926120017    0.47566176100996
C          10.75485426483776   -2.71606855669181    0.23254854901001
C           9.67735141219780   -2.02835625815289   -0.44306552188156
N           8.59935486596020   -2.81494010798005   -0.56086609242845
S           8.90952422133225   -4.23760434001537    0.10004380802425
N          10.41916256975194   -3.96153838015649    0.57939743227671
N          13.00170461693414   -2.64647704155592    1.23731926175373
C          13.63718431849103   -3.79863315157217    0.83087958458220
C          13.74385626543599   -4.12641187922384   -0.53269578266553
S          12.97296901255445   -3.15380883677257   -1.81913879366413
C          14.02270545740035   -1.73703330985643   -1.96685061255622
C          13.59859910939878   -0.74544183852149   -2.84686967624148
C          14.33544699624472    0.41528279170038   -2.97575325213593
C          15.49610522241456    0.58977357414196   -2.23399756260141
C          15.92129830642830   -0.40887143730955   -1.37366425495015
C          15.18712148528556   -1.57264109773739   -1.23038717495839
C          14.44247868285899   -5.24594945337671   -0.95188731824843
C          15.07964348147937   -6.06498978609792   -0.03962398266063
C          15.01317884033037   -5.74204373386561    1.30501093022666
C          14.30911390685585   -4.63417244603510    1.73130293739437
C          13.02672793236010   -2.18454712460895    2.62300942963331
C          12.02396277784154   -3.01993206206079    3.35446730328226
C          10.69816309335539   -2.79974387308457    3.37086880807834
C           9.68311809853634   -3.76759687886460    3.79242642757765
C           9.88727625765011   -4.87724086252465    4.56178210731401
C           8.86376160165418   -5.77665036320958    4.93312448147908
N           8.07713572650733   -6.54324379275945    5.26439696188718
C          11.12602247748068   -5.26052075504688    5.12022918280292
N          12.09602932637209   -5.62635999083603    5.61309162368886
C           8.41258163596950   -3.32097265858770    3.24934497257142
C           8.58039491759502   -2.01941114388334    2.68700125294404
C           7.54064836900044   -1.35444502789996    2.09753900184034
C           6.27920691532392   -1.98346553347420    2.02020692588615
C           5.18363030769789   -1.34523836706900    1.40669348444606
C           3.97008062273252   -1.97318711198164    1.32858123500784
C           3.80003373368180   -3.26152011606514    1.85887993375628
C           4.84488064835957   -3.90683782023147    2.46262647837889
C           6.10887659082544   -3.29048513745397    2.56193029581547
C           7.19354376195986   -3.94615296932831    3.18424829781416
C           9.98548294317659   -1.61526909149298    2.80278803830211
O          10.46947177696553   -0.54283822780547    2.49712025997338
H           1.98367237366942    1.33393057706128   -2.20226557797885
H           0.45598461155045    2.47683894643014   -3.75987558677316
H           0.98454441660532    4.73935703338835   -4.57913443529486
H           3.04354730521780    5.87516116824955   -3.84784568205331
H           5.09209574174448    5.90352384370080   -2.54143110742740
H           4.05760827285294    1.32053994069634   -0.86281262591149
H           8.75779300468949    2.52750826389402    1.33672534514349
H           9.03235089500313    0.82494195415979   -2.14537292521215
H          13.68870242308870    5.44400348622183    2.40128005462382
H          14.03434893223619    3.30469826421405    3.59167985421112
H          12.43474543868930    1.43917704106072    3.22580886289497
H          10.56241421986995    1.70551945442413    1.72449325183231
H          11.63994191575442    7.48164207155607   -1.95172704882751
H          10.52534196932619    6.76972660856450   -4.04301038996332
H           9.24757132978807    4.64950010614381   -4.08064166771743
H           8.99129442876842    3.33435001307258   -2.02519693010221
H           8.15281506957636   -0.72867510527659   -2.23633386989322
H           7.94256294011073    0.31626640340297   -0.84212242667006
H          15.51811659347850   -2.34603949094531   -0.55437967823653
H          12.68931133446709   -0.89101300381237   -3.41171989218476
H          14.00183792872174    1.19030962485228   -3.65032935454194
H          16.06534745774642    1.50132821144258   -2.32992561734696
H          16.82373839345929   -0.27608196133584   -0.79737597856426
H          14.48655925840465   -5.46006408694205   -2.00889660950705
H          15.62032240600860   -6.93540396114306   -0.37441930885310
H          15.50782429328496   -6.36230573001816    2.03680802039185
H          14.27863282266862   -4.42820821189917    2.78778464382203
H          12.75588996581772   -1.12918423755675    2.62314796001068
H          14.03208343841729   -2.29888003155672    3.02988782032658
H          12.38833794610901   -3.96167095710355    3.73992773655968
H           7.66350523475079   -0.36563098673692    1.68324762161929
H           5.33465540593645   -0.35349648034617    1.00956194609174
H           3.13015386061751   -1.48180071492720    0.85995489246522
H           2.83511865956357   -3.74120989523600    1.78864198995487
H           4.71784061304543   -4.89671751707049    2.87594812570090
H           7.03998117244504   -4.93504163059999    3.58645477512245
