115
 SCF done       -216.199235117057          0.000672681702
C          -2.55496995112922   -1.58034386271632   -3.02914724158367
C          -3.34820305630555   -2.56365961197772   -2.46765174528378
C          -2.87431406100290   -3.84182496747760   -2.12240321575541
N          -2.55348369027649   -4.90550470681844   -1.82680061478939
C          -4.70037259443813   -2.41162359909839   -2.12551606457578
N          -5.80158433122046   -2.32031438214233   -1.79891708892227
C          -1.13532003145187   -1.64232562260904   -3.23204868654743
C          -0.69822700849563   -0.35213399243520   -3.68529298245490
C           0.63578809112220   -0.09914395882133   -3.98619550259255
C           1.54704235841412   -1.13253373824891   -3.82515483620480
C           1.10031939124183   -2.40274013448115   -3.36922198827969
C          -0.22353850878052   -2.67381730959702   -3.07263625984765
S           2.42268768263814   -3.52981859567257   -3.25206127404747
C           3.53356146298478   -2.31833885230015   -3.79986358112949
C           2.95457393301040   -1.12842652233103   -4.06011411848591
C          -1.82135301107098    0.50137733929715   -3.76830586933777
O          -1.72461638117659    1.73700102336860   -4.31448846139452
C          -2.98467251879566   -0.22082126316687   -3.38982484703850
C          -4.32074504015655    0.13586699080795   -3.39723959645657
N          -4.86899690998945    1.37224898345123   -3.38963418349115
C          -4.16501425688819    2.49917896502560   -2.92065187595237
C          -4.32739220097101    3.74457008640532   -3.52744184176281
S          -5.46247125965239    3.91993295513499   -4.87327681550419
C          -6.64042409717731    2.68589314784045   -4.39305358089301
C          -7.96275129546631    2.85178126109810   -4.77613726822506
C          -8.89056432559355    1.86819172572496   -4.48995306841491
C          -8.50434164002932    0.74561264759005   -3.77399410955859
C          -7.19451527754282    0.59301073804893   -3.36266383051933
C          -6.23593861385598    1.54462189262318   -3.70239171240015
C          -3.56984938149535    4.82982525060233   -3.11153330491951
C          -2.67458449657387    4.68853418422579   -2.06912088544732
C          -2.56119721722422    3.47228331050332   -1.41286898849063
C          -3.30287443918164    2.38647155450189   -1.82951324507787
C          -6.20816826893952    2.34765190973735   -0.32183156908404
C          -6.68483313430254    3.55989370329781   -0.67480834847537
C          -7.99574365476200    3.73511302134226   -1.26617764073708
C          -8.45610206084150    5.01930303273714   -1.68254725746771
N          -9.68905750292618    5.13550869829291   -2.21325745161911
C         -10.43395289679668    4.06610309481306   -2.32198425182283
C          -9.98609543971115    2.82122177473213   -1.88414519792610
N          -8.78581806973771    2.67741172056772   -1.37367582907460
F         -10.75586524715480    1.73038461517389   -1.95933904408132
F         -11.64026853011923    4.23980187921560   -2.87132732400771
C          -7.66572051606389    6.18494723597705   -1.52018457791824
C          -6.46097564246223    6.06451976261962   -0.84171403355098
C          -5.95730037405983    4.78451452811429   -0.44612781065600
N          -4.80718351539963    4.81424272022045    0.19700291520634
S          -4.24230602151933    6.30842288491746    0.38249595038750
N          -5.54649163354194    7.02691727405724   -0.48417908992577
N          -8.26984025951788    7.46770504753603   -1.98297231695046
C          -7.27051341965099    8.53275254869937   -2.10425743496536
C          -6.18617024406242    8.30563866069397   -2.95415568708883
S          -6.13721894534479    6.85311489508705   -3.94957505730314
C          -7.86383003136753    6.85549757955816   -4.31850537758367
C          -8.27616817264825    6.52977743899533   -5.60255894834561
C          -9.60552175921756    6.67270167568318   -5.94662350150207
C         -10.50131569781640    7.18681088424972   -5.02267447865854
C         -10.09818993842743    7.49257879596803   -3.73410549796268
C          -8.77894558704000    7.27810554108965   -3.36003760607923
C          -5.15727570722927    9.23369940931311   -3.04651425883789
C          -5.22428703338957   10.41032460835658   -2.32804388012718
C          -6.33200136243951   10.66990499604346   -1.53617700905684
C          -7.35202012976304    9.73915641758816   -1.42093393733800
C          -9.37017961251749    7.79678008382864   -1.03971082578662
C          -8.88224708713391    7.83997688603200    0.36460233489213
C          -9.55775866565558    7.81323069092787    1.53259670098603
C         -10.94186981580842    7.77364793456328    1.94578840281692
C         -12.06876361890055    8.06079823232370    1.18445697696063
C         -13.38877212235887    7.97074981756436    1.65700828903557
N         -14.49547258437008    7.91586983407644    1.96585757148547
C         -12.04890593555678    8.55793574795088   -0.11990591592768
N         -12.06887664922033    9.00144360712760   -1.18477276387749
C         -10.95797941208653    7.46777424751593    3.36398071177642
C          -9.62473608788577    7.42971072465804    3.86208918425536
C          -8.70352600743917    7.68244601867949    2.75886635664773
O          -7.49100341937963    7.75559897745763    2.77129794569665
C          -9.32885294952106    7.18720200810313    5.18196832816511
C         -10.39217756651055    6.96176575276241    6.06145388771282
C         -11.71566557405971    6.99428302955562    5.55940563695425
C         -12.01843408577338    7.24412013055697    4.22699841382355
S         -12.86973742267013    6.68852892531594    6.81834192408012
C         -11.59687255417691    6.52410023717557    7.98212176314490
C         -10.36313524104684    6.68889138164366    7.45758532110547
H           0.94533991683511    0.87482328165675   -4.33053548914863
H          -0.51945241909456   -3.65493151787241   -2.73968408618033
H           4.56938725045177   -2.58164865954012   -3.89384935907719
H           3.48929049096793   -0.26308559870208   -4.40920859058892
H          -5.03726212032643   -0.66595344274388   -3.46214426354896
H          -2.59014688225892    2.15440726528039   -4.38854678255804
H          -8.24702982035619    3.74398343681437   -5.31409954774273
H          -9.91264447841011    1.98322174343775   -4.81662684563317
H          -9.22979829597824   -0.00999931524142   -3.51954777258642
H          -6.92288406265941   -0.27270907655259   -2.77793902687940
H          -3.68097461713976    5.77231720336153   -3.62318562413250
H          -2.07598580615004    5.53039860277961   -1.75951794206945
H          -1.89045131306111    3.36893086734512   -0.57557174360172
H          -3.21316010532985    1.43590765183247   -1.32801268667926
H          -5.24944258647184    2.26059468210155    0.15371133514853
H          -6.79693293832704    1.46555956710083   -0.49026972402372
H          -5.77892488284078    7.98890541414657   -0.30139752314543
H          -7.54160389852312    6.18406662003763   -6.31356037026700
H          -9.93507456140223    6.41005225434759   -6.93948234481018
H         -11.53328398254119    7.33886815993390   -5.29414283939579
H         -10.83681874349765    7.86462282830882   -3.04416533983358
H          -4.32409546560395    9.02314760019036   -3.69742877802270
H          -4.42743761057229   11.13281180728375   -2.40136508691042
H          -6.40726031145164   11.59856195910355   -0.99395136925133
H          -8.18417133464415    9.96682788747214   -0.77693061849823
H         -10.11428114577265    7.00243659037278   -1.15316667159693
H          -9.82964781151638    8.73873334859555   -1.35097317277316
H          -7.80851418926520    7.84466895808168    0.50232046756441
H          -8.30573919011244    7.17170139964748    5.52487379751522
H         -13.04401162990017    7.25475100671650    3.89900141469599
H         -11.85845378479067    6.31074964776310    9.00004385388491
H          -9.45343378452148    6.62203627400881    8.02677672127337
