# ORCA input file
# SCF done       -156.889013071859          0.000629874661
! CAM-B3LYP def2-SVP def2/J RIJCOSX Grid4 TightSCF
%maxcore 5000
%tddft
    Mode sTDDFT
    Ethresh 5.0
    maxcore 5000
end

%pal
  nprocs 6
  end
* xyz 0 1
   C      -14.30145         4.54969         0.86605
   C      -14.72178         4.88161         2.12739
   C      -16.05496         4.77453         2.57364
   N      -17.12258         4.70844         2.98969
   C      -13.86830         5.36353         3.14096
   N      -13.20691         5.75410         3.99394
   C      -15.14546         4.03812        -0.21099
   C      -14.33780         3.79066        -1.35199
   C      -14.85057         3.30602        -2.53140
   C      -16.22477         3.05294        -2.59053
   C      -17.02232         3.30140        -1.44773
   C      -16.50357         3.79166        -0.25440
   S      -18.69099         2.92117        -1.73828
   C      -18.30255         2.43962        -3.36839
   C      -16.98962         2.55758        -3.68117
  Br      -19.66414         1.82815        -4.50342
   C      -12.95034         4.13988        -1.03305
   O      -11.96870         4.04760        -1.76938
   C      -12.95421         4.62414         0.34856
   C      -11.80399         5.06544         0.95990
   N      -10.64993         5.04701         0.28778
   C       -9.42417         5.44225         0.71530
   S       -9.16732         6.08236         2.30736
   C       -7.48298         6.24975         1.93629
   N       -6.64029         6.76875         2.93086
   O       -5.45862         6.87744         2.66564
   O       -7.16249         7.07123         3.98800
   C       -7.14935         5.84047         0.67344
   C       -8.25717         5.36866        -0.05700
   C       -8.23808         4.84953        -1.40087
   C       -7.14296         4.72913        -2.17121
   C       -7.11427         4.17405        -3.50191
   C       -7.88863         3.20219        -4.00216
   C       -8.93267         2.44812        -3.24074
   C       -7.72086         2.71351        -5.42597
   N       -6.83661         3.47452        -6.26406
   C       -7.16812         4.66354        -6.82775
   C       -8.35743         5.29472        -6.73173
   C       -8.66896         6.48958        -7.43988
   C       -9.85232         7.19251        -7.38161
   C       -9.84298         8.30910        -8.22292
   C       -8.65330         8.47815        -8.93587
   S       -7.52158         7.22681        -8.55016
   C       -8.64182         9.58080        -9.78888
   C       -9.83421        10.27150        -9.73714
   S      -10.97857         9.54983        -8.61439
   C      -10.19394        11.43043       -10.47588
   S      -11.74085        12.20606       -10.29881
   C      -11.37323        13.40949       -11.46814
   C      -10.12056        13.22617       -11.97147
   C       -9.44818        12.11356       -11.41737
   O       -8.17980        11.77515       -11.80578
   C       -7.55791        12.51857       -12.74293
   O       -6.44855        12.23294       -13.09279
   C       -8.29044        13.72969       -13.34617
   O       -7.76893        14.40932       -14.18062
   O       -9.53944        14.01885       -12.92239
   H      -14.21360         3.12846        -3.38369
   H      -17.15264         3.96609         0.58727
   H      -16.57775         2.30636        -4.64144
   H      -11.78758         5.43612         1.97651
   H      -10.74356         4.68107        -0.67775
   H       -6.14010         5.88811         0.30888
   H       -9.19136         4.56414        -1.81586
   H       -6.19089         5.09282        -1.80862
   H       -6.33775         4.58350        -4.13614
   H       -8.66949         2.37623        -2.18783
   H       -9.04040         1.44377        -3.64664
   H       -9.90295         2.93921        -3.31589
   H       -8.70930         2.69195        -5.89986
   H       -7.35360         1.68124        -5.39820
   H       -5.86354         3.21987        -6.25414
   H       -6.38931         5.09796        -7.44082
   H       -9.14432         4.91118        -6.10070
   H      -10.68142         6.90520        -6.76205
   H       -7.81789         9.86559       -10.41504
   H      -12.08031        14.17130       -11.71926
*
