# ORCA input file
# SCF done       -201.659478461395          0.000623783611
! CAM-B3LYP def2-SVP def2/J RIJCOSX Grid4 TightSCF
%maxcore 5000
%tddft
    Mode sTDDFT
    Ethresh 5.0
    maxcore 5000
end

%pal
  nprocs 6
  end
* xyz 0 1
   C       -3.55677        -0.49272        -3.18738
   C       -3.52961        -1.60685        -2.37796
   C       -3.00950        -2.85517        -2.77193
   N       -2.60454        -3.89906        -3.02913
   C       -4.00168        -1.67526        -1.05336
   N       -4.36101        -1.81359         0.03065
   C       -3.04677        -0.44076        -4.55687
   C       -3.22575         0.87316        -5.05464
   C       -2.85120         1.24590        -6.32099
   C       -2.27350         0.27101        -7.14289
   C       -2.09865        -1.03793        -6.63891
   C       -2.47509        -1.41306        -5.35358
   S       -1.37246        -2.08589        -7.82002
   C       -1.31653        -0.76777        -8.95975
   C       -1.81351         0.39762        -8.48243
  Br       -0.60914        -1.05459       -10.67375
   C       -3.86252         1.69789        -4.00961
   O       -4.15057         2.88084        -4.10394
   C       -4.07280         0.81419        -2.86632
   C       -4.69649         1.15483        -1.67831
   C       -5.26507         2.34681        -1.25904
   S       -5.32653         3.83707        -2.15732
   C       -6.22899         4.64390        -0.90925
   C       -6.48113         3.77716         0.19130
   C       -5.92295         2.49219         0.00186
   C       -6.05769         1.53339         1.01018
   C       -6.73175         1.83033         2.17535
   C       -6.83850         0.79890         3.25134
   C       -7.30679         3.11015         2.35450
   C       -8.04211         3.43165         3.61734
   C       -7.17693         4.06410         1.36914
   C       -6.65652         5.96031        -1.02635
   C       -6.33821         6.79629        -2.08197
   C       -6.81736         8.08080        -2.29756
   C       -7.82180         8.77105        -1.62598
   C       -8.28064        10.05642        -1.96839
   C       -9.35093        10.49648        -1.23131
   C       -9.78090         9.57653        -0.26643
   S       -8.77914         8.15017        -0.30100
   C      -10.86445         9.66195         0.60748
   C      -11.84607        10.65772         0.68989
   C      -12.82968        10.38067         1.60556
   C      -12.65476         9.16570         2.28936
   S      -11.19114         8.38253         1.75149
   C      -13.53057         8.62068         3.22089
   C      -13.37733         7.45035         3.93722
   S      -11.92976         6.48505         3.89678
   C      -12.57796         5.28572         4.98707
   C      -13.88001         5.65579         5.41265
   C      -14.33143         6.86131         4.82000
   C      -15.59952         7.35192         5.13796
   C      -16.39942         6.69531         6.04784
   C      -17.75720         7.22969         6.37636
   C      -15.92048         5.53141         6.69265
   C      -16.75759         4.85060         7.72791
   C      -14.67868         5.02778         6.37509
   C      -11.78068         4.19475         5.32023
   C      -12.19996         2.97360         5.80417
   C      -11.32945         1.95168         6.19470
   C      -10.01445         2.05479         6.59948
   C       -9.24680         3.15882         7.10771
   C       -9.72579         4.27949         7.74983
   C       -8.90804         5.28981         8.28665
   N       -8.28948         6.15635         8.71965
   C      -11.08427         4.50379         8.03659
   N      -12.16649         4.71665         8.35955
   C       -7.83899         2.76129         7.08622
   C       -7.76574         1.37993         6.78040
   C       -9.13051         0.87334         6.51557
   O       -9.45184        -0.26263         6.23511
   C       -6.57558         0.69711         6.73227
   C       -5.39936         1.41650         6.97842
   C       -5.48233         2.79932         7.26177
   C       -6.68927         3.48754         7.32577
   S       -3.91017         3.49574         7.51582
   C       -3.17335         1.93826         7.24493
   C       -4.05643         0.94804         6.97613
  Br       -1.30668         1.77023         7.34374
   H       -3.00065         2.25560        -6.67011
   H       -2.32021        -2.42491        -5.01887
   H       -1.85623         1.30925        -9.05002
   H       -4.77890         0.35834        -0.95276
   H       -5.62930         0.54946         0.89244
   H       -6.35847        -0.12623         2.94497
   H       -7.87984         0.58624         3.49037
   H       -6.35991         1.15452         4.16360
   H       -7.36528         3.38661         4.47102
   H       -8.84177         2.71172         3.79298
   H       -8.47194         4.42952         3.56741
   H       -7.61462         5.04103         1.51036
   H       -7.26376         6.33993        -0.21842
   H       -5.64175         6.41226        -2.81669
   H       -6.39380         8.62030        -3.13575
   H       -7.82156        10.62429        -2.75842
   H       -9.82969        11.44859        -1.37190
   H      -11.82697        11.53716         0.07205
   H      -13.67335        11.01983         1.79736
   H      -14.44200         9.17921         3.38752
   H      -15.95544         8.26081         4.67617
   H      -17.97742         8.11653         5.78787
   H      -17.82050         7.48999         7.43231
   H      -18.52201         6.48046         6.17543
   H      -16.99675         5.53794         8.53809
   H      -16.23104         3.99686         8.14480
   H      -17.69772         4.50638         7.29745
   H      -14.29997         4.17175         6.90684
   H      -10.72482         4.30172         5.09568
   H      -13.25333         2.73727         5.77356
   H      -11.69803         0.93314         6.12617
   H       -6.54921        -0.35818         6.51023
   H       -6.70301         4.54250         7.54407
   H       -3.77550        -0.07112         6.78306
*
