# ORCA input file
# SCF done       -155.386737441103          0.000668697305
! CAM-B3LYP def2-SVP def2/J RIJCOSX Grid4 TightSCF
%maxcore 5000
%tddft
    Mode sTDDFT
    Ethresh 5.0
    maxcore 5000
end

%pal
  nprocs 6
  end
* xyz 0 1
   C      -19.70265        -7.48154         3.80071
   C      -18.56365        -8.24896         3.70444
   C      -18.54751        -9.65283         3.81651
   N      -18.46438       -10.79558         3.90438
   C      -17.25543        -7.76165         3.51643
   N      -16.15594        -7.45383         3.38202
   C      -21.04604        -8.00136         4.05347
   C      -21.94069        -6.90955         4.16256
   C      -23.28195        -7.07145         4.40466
   C      -23.76746        -8.37672         4.54386
   C      -22.86769        -9.46066         4.42977
   C      -21.50890        -9.29610         4.18612
   S      -23.67612       -10.98649         4.63161
   C      -25.19128       -10.15596         4.86427
   C      -25.09974        -8.80735         4.79438
  Br      -26.75216       -11.14868         5.17832
   C      -21.19377        -5.64749         3.96855
   O      -21.65960        -4.52472         4.01193
   C      -19.79831        -6.04791         3.71323
   C      -18.77468        -5.17374         3.40444
   C      -18.89067        -3.78954         3.34458
   C      -17.83334        -2.96726         3.00348
   C      -17.84449        -1.55546         2.93277
   C      -16.65074        -1.00462         2.56789
   C      -15.64003        -1.95874         2.32449
   S      -16.24957        -3.57817         2.58617
   C      -14.33476        -1.74655         1.92130
   C      -13.67858        -0.52240         1.65460
   C      -12.38618        -0.66533         1.25985
   C      -11.94575        -2.01660         1.17515
   S      -13.25513        -3.09083         1.65023
   C      -10.67677        -2.40246         0.85300
   N      -10.20251        -3.67153         0.68560
   C      -10.88681        -4.78702         0.29468
   S      -12.30595        -4.67342        -0.69518
   C      -12.35543        -6.40205        -0.79342
   N      -13.39875        -6.96901        -1.52790
   O      -13.43256        -8.18172        -1.63065
   O      -14.19767        -6.19238        -2.02848
   C      -11.33497        -7.01898        -0.12063
   C      -10.46485        -6.10836         0.50676
   C       -9.29778        -6.45249         1.27986
   C       -8.86547        -7.71196         1.47760
   C       -7.70142        -8.14651         2.20458
   C       -7.02187        -7.54452         3.19403
   C       -7.36081        -6.21927         3.80090
   C       -5.78494        -8.20936         3.74952
   N       -4.59357        -7.49960         3.33859
   C       -3.87213        -6.62915         4.10464
   C       -3.94361        -6.43178         5.43427
   C       -3.03271        -5.55089         6.10767
   C       -2.94787        -5.30386         7.42364
   C       -3.84275        -5.87970         8.47727
   C       -1.90506        -4.34367         7.94627
   N       -2.47458        -3.07692         8.36186
   C       -2.95786        -2.89399         9.63183
   C       -3.89038        -2.01059         9.97992
   H      -23.93813        -6.21883         4.48332
   H      -20.86570       -10.15610         4.10559
   H      -25.93496        -8.14164         4.91379
   H      -17.79939        -5.58916         3.18138
   H      -19.84157        -3.33050         3.57273
   H      -18.73454        -0.99333         3.15293
   H      -16.47672         0.05130         2.46315
   H      -14.17908         0.42293         1.75903
   H      -11.73113         0.15047         1.01099
   H       -9.92782        -1.62863         0.74735
   H       -9.20543        -3.79562         0.80584
   H      -11.24625        -8.08857        -0.08762
   H       -8.74017        -5.62532         1.69111
   H       -9.41513        -8.51834         1.01198
   H       -7.36461        -9.13647         1.91741
   H       -6.91529        -5.40314         3.22971
   H       -6.96826        -6.15660         4.81310
   H       -8.43866        -6.07400         3.83095
   H       -5.71403        -9.24038         3.38518
   H       -5.81636        -8.23453         4.83899
   H       -4.49230        -7.40857         2.34019
   H       -3.12011        -6.09214         3.53918
   H       -4.67260        -6.95619         6.03138
   H       -2.31847        -5.05727         5.45725
   H       -3.28206        -6.57502         9.10424
   H       -4.69062        -6.40786         8.05335
   H       -4.21895        -5.08459         9.12236
   H       -1.15954        -4.14027         7.17024
   H       -1.39365        -4.77575         8.81150
   H       -3.00795        -2.61198         7.63919
   H       -2.45806        -3.49500        10.38103
   H       -4.39384        -1.40117         9.24873
   H       -4.15647        -1.85695        11.00815
*
