# ORCA input file
# SCF done       -180.260238461583          0.000600255155
! CAM-B3LYP def2-SVP def2/J RIJCOSX Grid4 TightSCF
%maxcore 5000
%tddft
    Mode sTDDFT
    Ethresh 5.0
    maxcore 5000
end

%pal
  nprocs 6
  end
* xyz 0 1
   C       -1.99189        -9.04892        -1.64542
   C       -2.89245        -9.50909        -0.71576
   C       -3.06630       -10.87048        -0.39045
   N       -3.25932       -11.95764        -0.07510
   C       -3.78472        -8.72056         0.03804
   N       -4.55044        -8.16093         0.68868
   C       -1.09893        -9.88935        -2.43764
   C       -0.37304        -9.06396        -3.33130
   C        0.55517        -9.55952        -4.21299
   C        0.78476       -10.93977        -4.20984
   C        0.05869       -11.75712        -3.31178
   C       -0.88430       -11.25473        -2.42307
   S        0.50278       -13.42971        -3.46840
   C        1.64235       -13.01366        -4.72050
   C        1.68889       -11.69127        -5.00900
  Br        2.66332       -14.36360        -5.52841
   C       -0.77507        -7.65886        -3.12708
   O       -0.35794        -6.69443        -3.74185
   C       -1.76175        -7.67460        -2.04232
   C       -2.34616        -6.58140        -1.45237
   C       -2.20217        -5.21178        -1.69620
   S       -1.15815        -4.48823        -2.89305
   C       -1.57621        -2.93244        -2.33338
   C       -2.45081        -2.91531        -1.27932
   C       -2.96004        -1.65009        -0.67132
   C       -2.83623        -4.22424        -0.90657
   C       -3.78764        -4.55973         0.11882
   C       -3.94576        -3.92414         1.29865
   C       -4.89040        -4.36138         2.27331
   C       -4.94670        -3.87932         3.53311
   C       -5.87289        -4.37255         4.50613
   C       -5.89487        -4.10230         5.82238
   C       -4.91404        -3.24714         6.55438
   C       -6.90321        -4.81000         6.70212
   N       -6.43467        -6.13831         7.04340
   C       -5.51642        -6.34814         8.01207
   C       -4.78675        -7.48415         8.12521
   C       -3.83969        -7.74424         9.14685
   S       -3.10579        -9.30823         9.25404
   C       -2.10365        -8.83775        10.61100
   C       -2.38736        -7.51479        10.97194
   C       -3.33543        -6.90245        10.13785
   O       -3.74091        -5.59497        10.20366
   C       -2.86531        -4.73654        10.90186
   C       -2.66344        -5.19048        12.33617
   S       -1.67386        -6.72207        12.35867
   C       -1.16125        -9.75608        11.08460
   C       -0.20249        -9.52465        12.03556
   C        0.75433       -10.48304        12.37853
   C        1.83452       -10.32046        13.21405
   C        2.42537        -9.14607        13.79690
   C        2.39056        -7.85781        13.31316
   C        3.00846        -6.76308        13.94758
   N        3.46461        -5.82252        14.42553
   C        1.84016        -7.45910        12.07994
   N        1.46909        -7.04895        11.07248
   C        3.27633        -9.59043        14.90255
   C        3.36430       -11.00389        14.86627
   C        2.50844       -11.51156        13.77095
   O        2.36029       -12.66584        13.42872
   C        4.12780       -11.72038        15.75350
   C        4.83106       -11.00937        16.73280
   C        4.72532        -9.60059        16.76989
   C        3.95882        -8.87395        15.86564
   S        5.66562        -8.92305        18.06596
   C        6.18373       -10.52195        18.52973
   C        5.67942       -11.51260        17.75798
  Br        7.34183       -10.73152        19.99147
   H        1.09038        -8.90360        -4.88150
   H       -1.40850       -11.91992        -1.75765
   H        2.33432       -11.26162        -5.75316
   H       -3.01483        -6.80197        -0.63145
   H       -1.15491        -2.06994        -2.81462
   H       -2.88804        -0.83665        -1.38938
   H       -2.36791        -1.37858         0.20252
   H       -3.99681        -1.76399        -0.36222
   H       -4.40548        -5.43074        -0.06179
   H       -3.30412        -3.09853         1.57044
   H       -5.56191        -5.15679         1.97686
   H       -4.25119        -3.10657         3.82923
   H       -6.62214        -5.05234         4.11605
   H       -4.20639        -2.76703         5.88745
   H       -4.35539        -3.85863         7.26494
   H       -5.43830        -2.47722         7.12100
   H       -7.86168        -4.91370         6.18695
   H       -7.05925        -4.25597         7.63026
   H       -6.43688        -6.80508         6.28315
   H       -5.42778        -5.56685         8.75099
   H       -4.91743        -8.27308         7.39700
   H       -3.34554        -3.75478        10.87346
   H       -1.89490        -4.68110        10.38999
   H       -2.09875        -4.45868        12.90932
   H       -3.62222        -5.38541        12.81761
   H       -1.16709       -10.72000        10.59041
   H       -0.17442        -8.56914        12.53263
   H        0.61277       -11.49301        12.00763
   H        4.18243       -12.79617        15.69591
   H        3.90759        -7.80033        15.93774
   H        5.89427       -12.55564        17.90283
*
