# ORCA input file
# SCF done       -208.640998587766          0.000891878903
! CAM-B3LYP def2-SVP def2/J RIJCOSX Grid4 TightSCF
%maxcore 5000
%tddft
    Mode sTDDFT
    Ethresh 5.0
    maxcore 5000
end

%pal
  nprocs 6
  end
* xyz 0 1
   C        0.11086         1.37179        -2.79387
   C        1.41686         1.39911        -3.19685
   F        1.94742         2.52869        -3.68638
   C        2.22010         0.24606        -3.10314
   F        3.49858         0.30046        -3.50483
   C        1.70603        -0.91966        -2.60780
   C        0.36458        -0.97939        -2.18456
   C       -0.44871         0.18657        -2.27692
   C       -1.79764         0.15111        -1.85166
   C       -2.31243        -1.01321        -1.34812
   C       -1.49524        -2.17465        -1.26571
   C       -0.19264        -2.17234        -1.67055
   C       -2.28258        -3.29035        -0.70201
   O       -1.89807        -4.43303        -0.54732
   C       -3.63229        -2.74409        -0.46857
   C       -3.63367        -1.34581        -0.82268
   C       -4.65690        -0.45578        -0.60406
   C       -5.86744        -0.78127         0.04031
   N       -6.86145        -0.97226         0.58390
   C       -4.60156         0.90805        -0.95126
   N       -4.61206         2.02510        -1.21825
   C       -4.74484        -3.50013        -0.18025
   C       -4.77097        -4.81067         0.32363
   S       -6.10584        -5.83574        -0.12413
   C       -5.42434        -7.18970         0.71906
   C       -4.23274        -6.81439         1.38455
   C       -3.87946        -5.47236         1.18140
   C       -2.83553        -4.71970         1.88356
   C       -3.10015        -3.61477         2.56487
   O       -3.63716        -7.74911         2.15372
   C       -2.34573        -7.53852         2.67987
   C       -6.07380        -8.43129         0.66371
   C       -5.60522        -9.60699         1.19763
   C       -6.28307       -10.82115         1.12031
   C       -5.77470       -12.00430         1.62116
   C       -6.38429       -13.27564         1.61875
   C       -5.62506       -14.26283         2.18259
   C       -4.37369       -13.81762         2.65027
   S       -4.19074       -12.10563         2.36676
   C       -3.36882       -14.56496         3.25055
   C       -3.37823       -15.93615         3.56977
   C       -2.22689       -16.38304         4.15469
   C       -1.24183       -15.38600         4.32118
   S       -1.84766       -13.85062         3.71927
   C        0.02920       -15.42785         4.85738
   C        0.73092       -16.52533         5.35859
   S        0.16219       -18.16984         5.24644
   C        1.61520       -18.80737         5.95661
   C        2.50590       -17.75754         6.24191
   C        2.01910       -16.48353         5.92749
   C        2.80463       -15.27105         6.12468
   C        2.35057       -14.13095         6.62900
   O        3.73357       -18.03156         6.76651
   C        4.01897       -17.47177         8.03572
   C        1.89801       -20.15954         6.20237
   C        1.09923       -21.26055         6.03071
   C       -0.26357       -21.24797         5.70345
   C       -1.06277       -22.32574         5.41455
   C       -2.53153       -22.20151         5.54081
   O       -3.17066       -21.17695         5.65584
   C       -3.04156       -23.58997         5.54385
   C       -4.31399       -24.03858         5.74513
   C       -4.56039       -25.43056         5.74583
   C       -3.47676       -26.33167         5.53807
   C       -3.72738       -27.71813         5.54856
   C       -4.99447       -28.18798         5.75312
   C       -6.06529       -27.29608         5.95682
   C       -5.85438       -25.94566         5.95334
   F       -7.29881       -27.78420         6.15611
   F       -5.23041       -29.50783         5.76241
   C       -2.16949       -25.83633         5.32164
   C       -1.95613       -24.48480         5.32041
   C       -0.74430       -23.69448         5.10174
   C        0.40588       -24.15548         4.50826
   C        1.42852       -23.31544         4.02225
   N        2.25854       -22.67349         3.55595
   C        0.64156       -25.51091         4.20736
   N        0.88870       -26.60534         3.96169
   H       -0.49009         2.26437        -2.87124
   H        2.33398        -1.79449        -2.54328
   H       -2.39005         1.04758        -1.93911
   H        0.40701        -3.06698        -1.59786
   H       -5.71450        -3.08819        -0.43546
   H       -1.82189        -5.08291         1.80633
   H       -4.10073        -3.22330         2.65178
   H       -2.32385        -3.06483         3.06843
   H       -2.09698        -8.46508         3.19703
   H       -2.33244        -6.70889         3.39146
   H       -1.61841        -7.36227         1.88398
   H       -7.01608        -8.44498         0.13000
   H       -4.65298        -9.60449         1.70594
   H       -7.25666       -10.85586         0.64910
   H       -7.36510       -13.42762         1.20396
   H       -5.93308       -15.28934         2.26538
   H       -4.22769       -16.56339         3.36877
   H       -2.07923       -17.39992         4.46701
   H        0.56662       -14.48881         4.88053
   H        3.84767       -15.36542         5.84445
   H        1.33491       -14.01804         6.96993
   H        2.99366       -13.27562         6.74595
   H        3.40059       -17.94096         8.80883
   H        3.85631       -16.39137         8.05459
   H        5.06760       -17.68999         8.22734
   H        2.91074       -20.32522         6.54907
   H        1.55922       -22.22134         6.21643
   H       -0.80213       -20.31109         5.79285
   H       -5.12314       -23.34221         5.90496
   H       -2.91885       -28.41484         5.39128
   H       -6.68496       -25.27563         6.11149
   H       -1.36741       -26.54126         5.17157
*
