# ORCA input file
# SCF done       -165.805268056745          0.000585070523
! CAM-B3LYP def2-SVP def2/J RIJCOSX Grid4 TightSCF
%maxcore 5000
%tddft
    Mode sTDDFT
    Ethresh 5.0
    maxcore 5000
end

%pal
  nprocs 6
  end
* xyz 0 1
   C        0.24465         3.05685        -3.59361
   C       -0.85404         3.75449        -3.17548
   F       -2.01210         3.63614        -3.85367
   C       -0.82801         4.59846        -2.05755
   C        0.33881         4.73050        -1.35658
   C        1.50213         4.03487        -1.74341
   C        1.45544         3.18317        -2.88513
   C        2.61287         2.48378        -3.30047
   C        3.77569         2.63050        -2.59402
   C        3.81150         3.46949        -1.44293
   C        2.71249         4.16123        -1.02392
   C        5.16283         3.42013        -0.84967
   O        5.57815         4.04038         0.10370
   C        5.90160         2.40018        -1.64282
   C        5.10966         2.07716        -2.80503
   C        5.56625         1.54875        -3.98637
   C        6.92084         1.28552        -4.26404
   N        8.01094         1.08219        -4.56483
   C        4.74502         1.26842        -5.09499
   N        4.12389         0.98701        -6.01934
   C        7.06762         1.89555        -1.15292
   C        7.76538         0.70837        -1.51621
   C        9.13239         0.57657        -1.25093
   N        9.90563        -0.43091        -1.60998
   C        9.40782        -1.48500        -2.24499
   C        8.00406        -1.54564        -2.47481
   C        7.17233        -0.43158        -2.11921
   N        5.89004        -0.65879        -2.39496
   S        5.75253        -2.12739        -3.05190
   N        7.30699        -2.54368        -3.01183
   C       10.22552        -2.55870        -2.73196
   C       11.56761        -2.67219        -2.71035
   C       12.51366        -1.67151        -2.14972
   C       12.21062        -3.82853        -3.43551
   N       12.57507        -3.36181        -4.75907
   C       13.77682        -2.81739        -5.02753
   C       14.00831        -1.97415        -6.07653
   C       15.24698        -1.44747        -6.47689
   C       16.51492        -1.69111        -6.00083
   C       17.68980        -1.07835        -6.49825
   C       18.84620        -1.49292        -5.90756
   C       18.65872        -2.46462        -4.90333
   S       16.95595        -2.82033        -4.72487
   C       19.62381        -3.09768        -4.14052
   C       21.02005        -2.90410        -4.17912
   C       21.70928        -3.69923        -3.31371
   C       20.90123        -4.57021        -2.54286
   S       19.21372        -4.32146        -2.95362
   C       21.38683        -5.48369        -1.63759
   C       20.66883        -6.37898        -0.83810
   S       18.92096        -6.32485        -0.82253
   C       18.80601        -7.60047         0.29019
   C       20.04586        -8.08407         0.65200
   C       21.14048        -7.39583         0.02497
   C       22.45704        -7.86412         0.30090
   C       23.71196        -7.26729        -0.19574
   O       23.94006        -6.09737        -0.39688
   O       24.67533        -8.19036        -0.37433
   C       22.61466        -8.94994         1.14387
   C       21.54405        -9.59425         1.76837
   C       20.26022        -9.17281         1.53932
   O       19.17208        -9.74372         2.10330
   H        0.18889         2.41834        -4.46146
   H       -1.72623         5.12428        -1.77492
   H        0.38369         5.37486        -0.49133
   H        2.54830         1.84137        -4.16431
   H        2.76361         4.79876        -0.15385
   H        7.49789         2.45877        -0.32974
   H        9.65023         1.38549        -0.75069
   H        9.64364        -3.35074        -3.18766
   H       13.25282        -1.39416        -2.90393
   H       11.97845        -0.78977        -1.81426
   H       13.05399        -2.10643        -1.30857
   H       11.51893        -4.66846        -3.53924
   H       13.11620        -4.16565        -2.92781
   H       11.79616        -3.02698        -5.31313
   H       14.57715        -3.13451        -4.37593
   H       13.15261        -1.66675        -6.66451
   H       15.20796        -0.73959        -7.29589
   H       17.64363        -0.34743        -7.28667
   H       19.82348        -1.13288        -6.17379
   H       21.47802        -2.19066        -4.84045
   H       22.77884        -3.69419        -3.20000
   H       22.45935        -5.48770        -1.52392
   H       17.85443        -7.95666         0.62763
   H       25.49372        -7.75156        -0.65542
   H       23.61192        -9.30630         1.34682
   H       21.73623       -10.42540         2.43251
   H       19.44237       -10.47308         2.67590
*
