# ORCA input file
# SCF done       -173.902909525636          0.000715716167
! CAM-B3LYP def2-SVP def2/J RIJCOSX Grid4 TightSCF
%maxcore 5000
%tddft
    Mode sTDDFT
    Ethresh 5.0
    maxcore 5000
end

%pal
  nprocs 6
  end
* xyz 0 1
   C        6.64052         2.98276        10.55063
   C        6.31100         4.14277        11.19497
   F        5.79744         4.08688        12.43750
   C        6.48755         5.40362        10.60996
   C        7.00942         5.47978         9.34824
   C        7.36766         4.31598         8.63852
   C        7.17683         3.04272         9.24989
   C        7.51658         1.85963         8.55267
   C        8.03749         1.95288         7.29108
   C        8.24433         3.22854         6.69222
   C        7.91408         4.38461         7.33647
   C        8.84938         3.04412         5.35999
   O        9.13503         3.89637         4.54663
   C        9.11123         1.58521         5.24570
   C        8.42853         0.92878         6.32718
   C        7.94684        -0.36333         6.32740
   C        8.00923        -1.18299         5.18991
   N        8.00536        -1.84820         4.25078
   C        7.22981        -0.93972         7.39234
   N        6.66687        -1.46722         8.24306
   C        9.97181         1.21598         4.24688
   N       10.76297         0.14904         4.06834
   C       11.71912         0.19878         3.02682
   C       12.51989         1.27493         2.78219
   S       13.53152         1.03655         1.42559
   C       12.90385        -0.54418         1.18820
   C       11.93785        -0.87293         2.10057
   N       11.21486        -2.05130         2.10284
   C       10.82339        -2.66979         3.35609
   C       11.58691        -2.12504         4.54721
   O       12.48829        -2.71947         5.07111
   C       11.07434        -0.80605         5.10672
   C       10.86076        -2.65656         0.92004
   C       10.06226        -3.72683         0.79325
   C        9.66352        -4.30169        -0.47119
   C       10.36692        -4.40392        -1.60508
   C       11.80409        -4.01495        -1.76578
   C        9.72564        -5.04147        -2.82098
   N        9.82486        -6.48463        -2.79487
   C        8.88752        -7.28001        -2.24655
   C        9.04204        -8.61103        -2.00754
   C        8.01298        -9.41619        -1.49184
   C        8.10076       -10.76683        -1.27831
   C        7.09633       -11.61590        -0.75665
   C        7.45165       -12.92772        -0.67955
   C        8.76112       -13.19685        -1.14010
   S        9.53580       -11.71922        -1.66047
   C        9.39226       -14.42291        -1.21490
   C        8.88045       -15.68505        -0.84407
   C        9.73958       -16.71735        -1.06375
   C       10.98433       -16.33223        -1.62431
   S       11.02245       -14.59349        -1.84841
   C       12.00809       -17.17845        -1.95911
   C       13.24633       -16.83581        -2.52790
   S       13.77324       -15.20479        -2.91089
   C       15.29971       -15.70668        -3.53158
   C       15.42336       -17.07374        -3.45911
   C       14.26831       -17.69526        -2.89435
   O       14.41720       -19.03729        -2.84023
   C       15.64985       -19.27808        -3.36263
   N       16.08135       -20.61905        -3.43791
   O       17.18901       -20.80801        -3.91105
   O       15.33309       -21.48656        -3.03694
   C       16.31106       -18.14325        -3.75509
   H        6.48675         2.02887        11.03052
   H        6.20867         6.28449        11.16608
   H        7.15497         6.43998         8.87657
   H        7.36567         0.90902         9.03958
   H        8.06536         5.34138         6.85972
   H       10.10550         1.98488         3.49019
   H       12.55155         2.20116         3.32108
   H       13.27657        -1.13923         0.38020
   H       11.05129        -3.74008         3.28818
   H        9.74401        -2.53434         3.53104
   H       11.83350        -0.39452         5.78704
   H       10.18525        -1.03801         5.69984
   H       11.21996        -2.13747         0.04674
   H        9.60058        -4.17445         1.66029
   H        8.66213        -4.71684        -0.46433
   H       12.30934        -3.99652        -0.80297
   H       11.89198        -3.02871        -2.22358
   H       12.31494        -4.72348        -2.41695
   H       10.21313        -4.68129        -3.73165
   H        8.66564        -4.78250        -2.86918
   H       10.75139        -6.87485        -2.89175
   H        7.93786        -6.80227        -2.04599
   H        9.98873        -9.08653        -2.22635
   H        7.07302        -8.93972        -1.24370
   H        6.13883       -11.22725        -0.45627
   H        6.81021       -13.70771        -0.31089
   H        7.89488       -15.79853        -0.42928
   H        9.52352       -17.74848        -0.84715
   H       11.86281       -18.23561        -1.78028
   H       15.99108       -14.97984        -3.90215
   H       17.28805       -18.10477        -4.18993
*
