# ORCA input file
# SCF done       -192.651617387597          0.000810102051
! CAM-B3LYP def2-SVP def2/J RIJCOSX Grid4 TightSCF
%maxcore 5000
%tddft
    Mode sTDDFT
    Ethresh 5.0
    maxcore 5000
end

%pal
  nprocs 6
  end
* xyz 0 1
   C        8.43070        -2.23107       -12.25671
   C        8.51978        -2.07917       -13.61236
   F        8.35744        -3.14925       -14.41049
   C        8.77745        -0.83975       -14.21485
   C        8.94646         0.25969       -13.42039
   C        8.86588         0.16045       -12.01595
   C        8.60072        -1.10874       -11.42259
   C        8.50708        -1.23236       -10.01714
   C        8.67534        -0.12268        -9.23294
   C        8.95702         1.14019        -9.83094
   C        9.04674         1.28842       -11.18536
   C        9.13645         2.15443        -8.77478
   O        9.33639         3.33893        -8.90429
   C        9.08755         1.39187        -7.49310
   C        8.60544         0.05355        -7.78567
   C        7.97542        -0.79054        -6.91202
   C        7.71238        -0.47852        -5.56149
   N        7.42558        -0.26545        -4.47071
   C        7.43909        -2.04113        -7.28350
   N        6.99774        -3.06916        -7.53867
   C        9.54602         1.95180        -6.34948
   C        9.92090         1.27713        -5.14190
   C       10.53217         0.02793        -5.11003
   N       10.89508        -0.61997        -4.01725
   C       10.70985        -0.12487        -2.80487
   C       10.15657         1.18239        -2.68230
   C        9.76643         1.88558        -3.87482
   N        9.24478         3.08182        -3.61199
   S        9.24617         3.30336        -2.02410
   N        9.90636         1.90733        -1.59108
   C       11.10133        -0.95713        -1.67885
   C       11.61423        -2.24245        -1.94412
   C       12.02441        -3.08135        -0.93615
   C       11.92729        -2.63481         0.37965
   C       11.40347        -1.34873         0.64158
   C       10.98741        -0.50203        -0.36320
   O       11.38525        -1.07978         1.97598
   C       11.89953        -2.17593         2.59350
   C       12.25571        -3.17787         1.66308
   C       12.80473        -4.37285         2.12039
   C       12.99942        -4.53632         3.47170
   C       12.65277        -3.53646         4.40166
   C       12.08009        -2.34205         3.94920
   C       12.86688        -3.69029         5.82158
   C       13.60940        -4.64645         6.41362
   C       13.83270        -4.77840         7.82455
   C       13.21018        -4.03370         8.82785
   N       13.40352        -4.17317        10.12779
   C       14.26596        -5.05652        10.61110
   C       14.99913        -5.87225         9.70943
   C       14.75769        -5.74192         8.30074
   N       15.49906        -6.59270         7.58982
   S       16.39727        -7.46002         8.59808
   N       15.90629        -6.80769         9.98054
   C       14.49480        -5.14690        12.02204
   C       13.73380        -4.64721        13.02511
   C       14.32765        -4.45869        14.38231
   O       15.34947        -4.94902        14.80108
   C       13.43313        -3.50121        15.06035
   C       13.58784        -2.89553        16.27453
   C       12.60856        -1.97930        16.71780
   C       11.48443        -1.70134        15.88571
   C       10.51646        -0.77970        16.33090
   C       10.67315        -0.17664        17.54757
   C       11.76961        -0.43837        18.38103
   C       12.71929        -1.32881        17.96423
   F        9.74967         0.70374        17.97429
   C       11.34608        -2.34832        14.63594
   C       12.30231        -3.24098        14.23230
   C       12.40178        -4.07147        13.03608
   C       11.35967        -4.42867        12.22786
   C       11.43450        -5.45348        11.26018
   N       11.40899        -6.33293        10.52326
   C       10.06234        -3.88775        12.33693
   N        8.99686        -3.46275        12.37687
   H        8.22718        -3.19975       -11.82762
   H        8.83669        -0.78118       -15.29007
   H        9.14601         1.22486       -13.86109
   H        8.31481        -2.20552        -9.59359
   H        9.25389         2.25576       -11.61794
   H        9.70081         3.02551        -6.36472
   H       10.77479        -0.47778        -6.03684
   H       11.67795        -2.54947        -2.97543
   H       12.41678        -4.06284        -1.15279
   H       10.59294         0.47542        -0.14310
   H       13.07151        -5.15193         1.42321
   H       13.41647        -5.46306         3.83150
   H       11.79974        -1.56267         4.64022
   H       12.40031        -2.93067         6.43438
   H       14.12731        -5.38669         5.82031
   H       12.48509        -3.27377         8.57268
   H       15.43146        -5.61174        12.30958
   H       14.44854        -3.11206        16.88949
   H        9.65753        -0.55689        15.71730
   H       11.83951         0.06767        19.33081
   H       13.57273        -1.54690        18.58854
   H       10.49032        -2.11519        14.02224
*
