# ORCA input file
# SCF done       -226.132467700887          0.000939434837
! CAM-B3LYP def2-SVP def2/J RIJCOSX Grid4 TightSCF
%maxcore 5000
%tddft
    Mode sTDDFT
    Ethresh 5.0
    maxcore 5000
end

%pal
  nprocs 6
  end
* xyz 0 1
   C       -4.12368        -1.79600         4.94624
   C       -4.30461        -2.20248         6.24080
   C       -3.33330        -2.89150         6.99737
   N       -2.58473        -3.46281         7.65351
   C       -5.46631        -1.95161         7.00192
   N       -6.36769        -1.75348         7.68440
   C       -2.89810        -1.92443         4.17115
   C       -3.05791        -1.23166         2.94535
   C       -2.05969        -1.15202         2.00480
   C       -0.84551        -1.78658         2.28614
   C       -0.69800        -2.48480         3.50938
   C       -1.70696        -2.56528         4.46036
   S        0.87838        -3.20109         3.65009
   C        1.31405        -2.55883         2.08877
   C        0.33036        -1.84544         1.49001
  Br        3.02394        -2.89259         1.39588
   C       -4.41302        -0.64984         2.87566
   O       -4.88272        -0.02471         1.94856
   C       -5.08653        -1.06792         4.13485
   C       -6.41899        -0.94682         4.36858
   C       -7.33501        -0.20306         3.54193
   C       -8.52267        -0.83981         3.13646
   C       -9.33965        -0.29960         2.17154
   C       -9.04104         0.93517         1.59674
   C       -7.95723         1.63494         2.07008
   C       -7.10716         1.08062         3.03818
   N       -6.12830         1.99674         3.37638
   C       -5.22096         1.94084         4.48726
   C       -6.20321         3.11701         2.58973
   O       -5.45000         4.05771         2.67283
   C       -7.43309         2.98708         1.69356
   C       -8.35619         4.19728         1.98472
   C       -9.86123         3.94784         1.85092
   O      -10.52958         3.13205         2.44104
   N      -10.35767         4.86600         0.96690
   C      -11.75050         4.95427         0.62073
   C       -9.36184         5.69994         0.47820
   C       -9.46595         6.74616        -0.41262
   C       -8.29726         7.43094        -0.77569
   C       -7.07183         7.04809        -0.22132
   C       -6.98159         6.01014         0.69277
   C       -8.13292         5.34057         1.04393
   C       -8.39832         8.54772        -1.69292
   C       -7.38784         9.02714        -2.44034
   C       -7.47708        10.20387        -3.24818
   O       -8.51246        11.07263        -3.07093
   C       -8.30812        12.14937        -3.80947
   C       -7.12866        12.03018        -4.50968
   N       -6.56724        12.96998        -5.39243
   O       -7.21814        13.95594        -5.66415
   O       -5.45108        12.72302        -5.82887
   C       -6.58039        10.74898        -4.16552
   N       -5.43855        10.23284        -4.70351
   C       -5.14277         8.92159        -4.84020
   C       -3.97093         8.45941        -5.36241
   C       -3.64112         7.10679        -5.63766
   C       -2.40886         6.93907        -6.18544
   C       -1.68116         8.14306        -6.34500
   S       -2.62681         9.50962        -5.81385
   C       -0.38242         8.29486        -6.78911
   C        0.52039         7.31463        -7.25280
   C        1.76901         7.79908        -7.50246
   C        1.93495         9.17460        -7.20573
   S        0.40908         9.85566        -6.71589
   C        3.11917         9.88118        -7.33518
   C        3.42450        11.18628        -6.96157
   C        2.81331        12.08503        -6.10286
   C        1.87399        11.95502        -5.03491
   C        1.60032        10.81586        -4.30225
   C        0.60106        10.72087        -3.31886
   N       -0.23676        10.56086        -2.54794
   C        2.34906         9.63108        -4.41071
   N        2.95114         8.65328        -4.44887
   C        1.37215        13.28961        -4.71244
   C        2.13686        14.24266        -5.42778
   C        3.11339        13.52692        -6.27908
   O        3.96068        14.01440        -6.99608
   C        1.93685        15.59403        -5.29991
   C        0.92248        16.02442        -4.43529
   C        0.15381        15.06341        -3.74111
   C        0.36504        13.69399        -3.86083
   S       -1.05163        15.81242        -2.73775
   C       -0.50557        17.38694        -3.25076
   C        0.52129        17.35526        -4.13148
  Br       -1.34488        18.92254        -2.57343
   H       -2.21001        -0.61261         1.08282
   H       -1.54921        -3.11163         5.37523
   H        0.42884        -1.37912         0.52684
   H       -6.86921        -1.53891         5.15625
   H       -8.74767        -1.81120         3.55137
   H      -10.21466        -0.84024         1.84700
   H       -9.66487         1.33399         0.81363
   H       -4.32937         1.35054         4.25896
   H       -5.72042         1.51260         5.35736
   H       -4.90772         2.96435         4.69966
   H       -7.14217         3.01493         0.63954
   H       -8.18683         4.51013         3.02226
   H      -12.27384         4.17357         1.17144
   H      -11.88997         4.80167        -0.45138
   H      -12.15484         5.92852         0.90169
   H      -10.41622         7.03344        -0.83555
   H       -6.17901         7.59465        -0.47948
   H       -6.03645         5.73536         1.13400
   H       -9.37179         9.01210        -1.77654
   H       -6.41867         8.55162        -2.42695
   H       -9.02336        12.94750        -3.77894
   H       -4.84567        10.91647        -5.17766
   H       -5.90739         8.21719        -4.54504
   H       -4.32996         6.30838        -5.42628
   H       -1.99042         5.98830        -6.46074
   H        0.23147         6.28722        -7.38070
   H        2.59518         7.20219        -7.84456
   H        3.90419         9.34491        -7.85472
   H        4.28376        11.61874        -7.46812
   H        2.54187        16.30061        -5.84608
   H       -0.24595        12.99748        -3.31116
   H        0.97941        18.23220        -4.55119
*
