# ORCA input file
# SCF done       -168.031948317453          0.000965852584
! CAM-B3LYP def2-SVP def2/J RIJCOSX Grid4 TightSCF
%maxcore 5000
%tddft
    Mode sTDDFT
    Ethresh 5.0
    maxcore 5000
end

%pal
  nprocs 6
  end
* xyz 0 1
   C       -3.61890        -2.10421         0.59880
   C       -3.07960        -1.00695         1.22153
   C       -1.84456        -1.01164         1.90077
   N       -0.84573        -0.95540         2.46432
   C       -3.70117         0.25663         1.30350
   N       -4.15459         1.30403         1.43196
   C       -3.05759        -3.45059         0.61167
   C       -3.98296        -4.32979        -0.00080
   C       -3.74581        -5.67521        -0.13715
   C       -2.53596        -6.17791         0.35461
   C       -1.61609        -5.29086         0.96075
   C       -1.85678        -3.92911         1.10002
   S       -0.18160        -6.11900         1.48774
   C       -0.83065        -7.62543         0.89709
   C       -2.05663        -7.51669         0.33311
  Br        0.17396        -9.19927         1.07604
   C       -5.16617        -3.56636        -0.44973
   O       -6.12446        -4.01562        -1.04519
   C       -4.88544        -2.16012        -0.09870
   C       -5.59574        -1.07407        -0.54073
   C       -6.86372        -1.05534        -1.15608
   S       -7.12440         0.18406        -2.36685
   C       -8.64363        -0.49101        -2.77645
   C       -8.98055        -1.56914        -2.01700
   C      -10.26447        -2.31462        -2.16173
   C       -7.98298        -1.88606        -1.04691
   C       -8.20984        -2.86238        -0.02454
   C       -7.71157        -2.81632         1.23390
   C       -7.99201        -3.81016         2.20414
   C       -7.49188        -3.78610         3.46571
   C       -7.73836        -4.77191         4.46541
   C       -7.15327        -4.66809         5.73407
   N       -7.30606        -5.51779         6.72752
   C       -8.07247        -6.60548         6.60895
   C       -8.74222        -6.84089         5.37329
   C       -8.57146        -5.91388         4.28752
   N       -9.26557        -6.28700         3.21520
   S      -10.04777        -7.65919         3.54374
   N       -9.54476        -7.84978         5.06427
   C       -8.16999        -7.46108         7.72041
   C       -7.48504        -7.17727         8.87701
   C       -7.47387        -7.92800        10.07770
   C       -6.69659        -7.38920        11.05663
   C       -6.06108        -6.18839        10.66574
   S       -6.47903        -5.76110         9.00833
   C       -5.22914        -5.39917        11.43488
   C       -4.85795        -5.57592        12.78971
   C       -4.05333        -4.59267        13.27077
   C       -3.75330        -3.57105        12.32777
   S       -4.49741        -3.95127        10.78924
   C       -2.92037        -2.50739        12.55715
   C       -2.63008        -1.43382        11.67795
   C       -3.48788        -0.81100        10.79319
   C       -3.06369         0.21069         9.80401
   C       -1.73171         0.65999         9.69720
   C       -0.76709         0.26964        10.55591
   S       -0.97582        -0.86859        11.83330
   N       -4.06705         0.67613         9.09093
   C       -5.18567         0.06436         9.56814
   C       -4.88009        -0.85386        10.60152
   S       -6.31007        -1.54502        11.26449
   C       -7.30257        -0.63494        10.13997
   C       -6.55650         0.16783         9.30741
   C       -8.72567        -0.81692        10.20354
   C       -9.61606        -0.20524         9.42402
   H       -4.47021        -6.32038        -0.60890
   H       -1.12240        -3.29243         1.56454
   H       -2.60148        -8.34425        -0.08323
   H       -5.09762        -0.11087        -0.51444
   H       -9.21735        -0.04766        -3.56747
   H      -10.85431        -1.89829        -2.97412
   H      -10.84424        -2.25591        -1.24153
   H      -10.06713        -3.36447        -2.37399
   H       -8.89592        -3.65898        -0.27674
   H       -7.07724        -1.99096         1.53301
   H       -8.62764        -4.63303         1.91019
   H       -6.84808        -2.96711         3.76526
   H       -6.51006        -3.82527         5.95373
   H       -8.78828        -8.34139         7.64560
   H       -8.04146        -8.83687        10.17476
   H       -6.56772        -7.82235        12.03266
   H       -5.20158        -6.41455        13.36788
   H       -3.67626        -4.54793        14.27716
   H       -2.34097        -2.53888        13.47244
   H       -1.50741         1.37767         8.92282
   H        0.24201         0.64449        10.50987
   H       -6.97831         0.80468         8.55312
   H       -9.06217        -1.51634        10.95848
   H       -9.32393         0.49653         8.66252
   H      -10.67034        -0.39147         9.52820
*
