# ORCA input file
# SCF done       -176.076701215209          0.000999539040
! CAM-B3LYP def2-SVP def2/J RIJCOSX Grid4 TightSCF
%maxcore 5000
%tddft
    Mode sTDDFT
    Ethresh 5.0
    maxcore 5000
end

%pal
  nprocs 6
  end
* xyz 0 1
   C       -5.82677         0.57725         3.16293
   C       -5.43271         1.62228         2.37300
   C       -4.10355         2.09291         2.30479
   N       -3.04426         2.52250         2.19932
   C       -6.25108         2.33647         1.47139
   N       -6.83848         2.96937         0.71383
   C       -4.94046        -0.21161         4.00459
   C       -5.61381        -1.39846         4.38397
   C       -5.01282        -2.36415         5.15478
   C       -3.70577        -2.13102         5.60018
   C       -3.06198        -0.92039         5.24587
   C       -3.65621         0.04273         4.44252
   S       -1.47922        -0.80250         5.94010
   C       -1.68421        -2.36464         6.66875
   C       -2.88088        -2.94889         6.42098
  Br       -0.30607        -3.05523         7.72010
   C       -6.98909        -1.36709         3.83966
   O       -7.79761        -2.27305         3.85765
   C       -7.15462        -0.01828         3.25614
   C       -8.28544         0.65534         2.89662
   C       -9.67430         0.38580         2.95592
   S      -10.58545         1.31962         1.77796
   C      -12.03557         0.52040         2.19841
   C      -11.87604        -0.38239         3.20295
   C      -13.00270        -1.18334         3.76708
   C      -10.52900        -0.45059         3.67927
   C      -10.21390        -1.26816         4.81092
   C       -9.20562        -1.10224         5.69094
   C       -8.90508        -2.10740         6.65850
   C       -7.75109        -2.16975         7.35053
   C       -7.28631        -3.30092         8.11328
   C       -7.55372        -4.59494         7.87809
   C       -8.39497        -5.11208         6.75137
   C       -6.88986        -5.67448         8.70044
   N       -5.78615        -6.24078         7.95308
   C       -4.49203        -6.15696         8.30970
   C       -3.45591        -6.36432         7.45883
   C       -2.09794        -6.42020         7.86379
   S       -1.69846        -6.56844         9.54327
   C       -0.01524        -6.61744         9.17421
   C        0.25339        -6.50394         7.85419
   C        1.65606        -6.54487         7.34750
   C       -0.94306        -6.36966         7.06209
   C       -1.03937        -6.12931         5.66818
   C       -0.05055        -5.80172         4.78673
   C       -0.30879        -5.51887         3.43448
   C        0.68811        -5.23128         2.53704
   C        0.54435        -5.00336         1.16326
   C       -0.54727        -4.68475         0.38409
   C       -1.82889        -4.09146         0.63298
   C       -2.19981        -3.28176         1.68669
   C       -3.41199        -2.57322         1.73662
   N       -4.38086        -1.96127         1.83546
   C       -1.38065        -2.97082         2.78154
   N       -0.76078        -2.67967         3.70476
   C       -2.64203        -4.26912        -0.57190
   C       -1.81857        -4.77652        -1.60489
   C       -0.45745        -4.98343        -1.06669
   O        0.52505        -5.35175        -1.67350
   C       -2.28874        -5.03016        -2.86889
   C       -3.64354        -4.78336        -3.12171
   C       -4.46212        -4.29562        -2.07778
   C       -3.98260        -4.03132        -0.79958
   S       -6.10546        -4.07930        -2.60043
   C       -5.67397        -4.63634        -4.19535
   C       -4.36879        -4.96822        -4.33125
  Br       -6.99014        -4.73273        -5.52828
   H       -5.53916        -3.26728         5.42370
   H       -3.12369         0.94481         4.19152
   H       -3.16897        -3.91245         6.80294
   H       -8.09839         1.61292         2.41933
   H      -12.94267         0.76113         1.67846
   H      -13.92998        -0.93544         3.25731
   H      -13.12302        -0.97880         4.83011
   H      -12.81348        -2.24902         3.64245
   H      -10.87309        -2.11394         4.95702
   H       -8.55098        -0.24369         5.62719
   H       -9.63413        -2.89614         6.75659
   H       -7.07143        -1.32594         7.31339
   H       -6.58861        -3.06417         8.90847
   H       -8.08551        -6.11780         6.46883
   H       -8.32936        -4.46086         5.88105
   H       -9.44091        -5.17484         7.05273
   H       -7.61432        -6.46896         8.92177
   H       -6.50557        -5.28027         9.64215
   H       -5.97510        -6.42196         6.97681
   H       -4.30533        -5.94367         9.35352
   H       -3.67525        -6.52490         6.41166
   H        0.68466        -6.72393         9.97880
   H        2.32247        -6.86061         8.14683
   H        1.96845        -5.55351         7.02198
   H        1.74944        -7.24317         6.51823
   H       -2.04183        -6.16279         5.25838
   H        0.97089        -5.70379         5.11053
   H       -1.33177        -5.59427         3.08595
   H        1.70666        -5.27723         2.90174
   H        1.43697        -5.18353         0.56866
   H       -1.63560        -5.40797        -3.63963
   H       -4.64972        -3.66819        -0.03545
   H       -3.93282        -5.32934        -5.24474
*
