# ORCA input file
# SCF done       -162.148480317957          0.000710001861
! CAM-B3LYP def2-SVP def2/J RIJCOSX Grid4 TightSCF
%maxcore 5000
%tddft
    Mode sTDDFT
    Ethresh 5.0
    maxcore 5000
end

%pal
  nprocs 6
  end
* xyz 0 1
   C       -2.06824         0.48158         2.77969
   C       -0.88671         0.97570         3.27029
   C        0.33361         0.27130         3.24818
   N        1.35475        -0.25389         3.24871
   C       -0.75272         2.22997         3.90129
   N       -0.58028         3.22350         4.45121
   C       -2.27885        -0.85036         2.22669
   C       -3.66454        -1.02606         1.99304
   C       -4.18177        -2.17337         1.44359
   C       -3.28851        -3.19643         1.10630
   C       -1.90713        -3.01561         1.35486
   C       -1.38341        -1.85539         1.91284
   S       -0.98273        -4.40105         0.85714
   C       -2.44534        -5.18600         0.32162
   C       -3.56903        -4.45482         0.50621
  Br       -2.35127        -6.89725        -0.43506
   C       -4.39145         0.20231         2.37817
   O       -5.58470         0.39396         2.26551
   C       -3.34747         1.15978         2.80360
   C       -3.52410         2.51585         2.90858
   C       -4.74875         3.19887         3.03309
   S       -4.89031         4.78615         2.31879
   C       -6.53963         4.86371         2.76817
   C       -6.97763         3.77322         3.45905
   C       -8.36966         3.66630         3.98396
   C       -5.94597         2.80634         3.64392
   C       -6.00345         1.66239         4.50552
   C       -7.08325         0.89826         4.77702
   C       -7.05172        -0.17858         5.71065
   C       -8.03392        -1.09928         5.80405
   C       -8.05822        -2.19538         6.73292
   C       -7.41357        -2.19646         7.98463
   N       -7.36009        -3.26208         8.74532
   C       -7.94922        -4.38990         8.31049
   C       -8.76632        -4.31893         7.16009
   N       -8.80922        -3.25702         6.39947
   C       -7.76429        -5.58089         9.07617
   C       -7.78167        -6.85011         8.57555
   C       -7.61243        -8.05838         9.30973
   C       -7.52368        -9.17719         8.54223
   C       -7.59231        -8.92700         7.15203
   S       -7.86120        -7.22006         6.85657
   C       -7.41466        -9.78869         6.09147
   C       -7.22180       -11.19255         6.09628
   C       -7.01056       -11.71334         4.86107
   C       -6.99682       -10.75531         3.80246
   S       -7.30305        -9.16065         4.46421
   C       -6.84167       -11.06157         2.48282
   C       -6.75829       -10.18374         1.35497
   C       -7.10138       -10.66835         0.08348
   O       -7.55445       -11.94866         0.08328
   C       -7.58758       -12.74456        -1.08220
   C       -7.04215        -9.82749        -1.07514
   O       -7.46733       -10.38122        -2.24723
   C       -7.43366        -9.59878        -3.41700
   C       -6.60124        -8.52805        -0.98799
   C       -6.20412        -8.02886         0.25765
   C       -6.28089        -8.84952         1.43398
   N       -5.80564        -8.22255         2.50243
   S       -5.34630        -6.73917         2.08851
   N       -5.70825        -6.81972         0.51510
   H       -5.24146        -2.27868         1.27277
   H       -0.32209        -1.75732         2.07055
   H       -4.55068        -4.79380         0.22823
   H       -2.64997         3.14907         2.80422
   H       -7.11277         5.73071         2.50063
   H       -8.85201         4.64080         3.96728
   H       -8.36323         3.28773         5.00428
   H       -8.95599         2.98538         3.36816
   H       -5.05645         1.38771         4.95879
   H       -8.00530         1.04543         4.23711
   H       -6.17860        -0.25470         6.34650
   H       -8.85845        -1.07808         5.10400
   H       -6.95257        -1.30244         8.38319
   H       -9.42851        -5.12848         6.88665
   H       -7.52222        -5.44521        10.12085
   H       -7.55226        -8.04889        10.38376
   H       -7.37741       -10.16952         8.93081
   H       -7.24993       -11.76802         7.00462
   H       -6.84753       -12.75796         4.66073
   H       -6.81428       -12.11562         2.23782
   H       -6.65294       -12.68352        -1.64255
   H       -8.42033       -12.47422        -1.73367
   H       -7.72805       -13.76375        -0.72029
   H       -8.07825        -8.71913        -3.32970
   H       -7.81036       -10.24587        -4.20763
   H       -6.41436        -9.28390        -3.65938
   H       -6.54476        -7.87888        -1.84362
*
