# ORCA input file
# SCF done       -171.263514420247          0.000323808613
! CAM-B3LYP def2-SVP def2/J RIJCOSX Grid4 TightSCF
%maxcore 5000
%tddft
    Mode sTDDFT
    Ethresh 5.0
    maxcore 5000
end

%pal
  nprocs 6
  end
* xyz 0 1
   C       10.73123       -12.73312        -0.80365
   C        9.54316       -12.66182        -0.19152
   C        8.40548       -11.87089        -0.56837
   C        7.33756       -12.00517         0.24546
   C        7.53100       -12.91116         1.32525
   S        9.15091       -13.58712         1.26597
   C        6.62834       -13.26248         2.29181
   C        6.81193       -14.19245         3.34640
   C        5.72440       -14.34703         4.13780
   C        4.60312       -13.53894         3.78550
   S        5.00591       -12.56726         2.37397
   C        3.40213       -13.60549         4.43667
   C        2.17099       -12.94390         4.23358
   S        0.77607       -13.74359         4.94312
   C       -0.30147       -12.62282         4.21932
   C        0.35325       -11.68899         3.48961
   C        1.76739       -11.82086         3.51794
   C        2.57967       -10.79310         2.91568
   C        3.65940       -10.18758         3.44638
   C        4.15179       -10.41306         4.86116
   C        3.00990       -10.20962         5.80449
   S        2.12476        -8.71742         5.76869
   C        1.03381        -9.27740         6.99844
   C       -0.05305        -8.39192         7.50362
   C        0.50052        -7.30296         8.42494
   C        1.36112       -10.53287         7.39796
   C        2.48077       -11.06426         6.71630
   C        4.27522        -9.08265         2.72936
   O        3.49437        -8.11838         2.17877
   C        4.27338        -7.15782         1.72163
   C        5.60298        -7.45903         1.94832
   N        6.63389        -6.51999         1.78853
   O        7.69981        -6.73219         2.34181
   O        6.38009        -5.51369         1.14811
   C        5.61646        -8.74920         2.57934
   N        6.64371        -9.57556         2.92437
   C        7.91697        -9.66531         2.42212
   S        8.44042        -8.88476         0.96424
   C       10.00821        -9.56820         1.12586
   C       10.11953       -10.33533         2.23685
   C        8.91952       -10.42268         2.98563
   C        8.79448       -11.25079         4.18582
   C        9.57704       -11.09736         5.25940
   C        9.57501       -12.10225         6.39022
   C        8.18290       -12.42043         6.83028
   S        7.68369       -14.06186         7.09110
   C        6.09008       -13.55626         7.56671
   C        5.08218       -14.55435         8.02553
   C        5.36913       -15.00961         9.45783
   C        5.98153       -12.20353         7.51519
   C        7.16670       -11.55866         7.09389
   C       10.41205        -9.90436         5.38925
   C        9.85592        -8.67377         5.37451
   C       10.47849        -7.38700         5.32590
   C        9.61492        -6.34966         5.23223
   C        8.24318        -6.72648         5.24316
   S        8.10270        -8.46023         5.41280
   C        7.12439        -5.95403         5.10101
   C        7.02511        -4.56455         4.80995
   C        5.76396        -4.12520         4.61179
   C        4.74861        -5.13254         4.74985
   S        5.51776        -6.66742         5.18227
   C        3.42679        -5.00838         4.57961
   H       10.92698       -12.15412        -1.68868
   H       11.52091       -13.36286        -0.43709
   H        8.44463       -11.23419        -1.43398
   H        6.39702       -11.49482         0.12505
   H        7.74452       -14.71590         3.46597
   H        5.67519       -15.02032         4.97418
   H        3.36438       -14.36603         5.20952
   H       -1.35622       -12.72359         4.38138
   H       -0.14090       -10.88639         2.97087
   H        2.21214       -10.42076         1.96732
   H        4.93549        -9.68557         5.09143
   H        4.55131       -11.41833         5.01264
   H       -0.77805        -9.00070         8.04825
   H       -0.56511        -7.92147         6.66074
   H        0.99228        -7.75084         9.28546
   H       -0.30303        -6.66100         8.77737
   H        1.22660        -6.69366         7.89142
   H        0.81488       -11.07474         8.14998
   H        2.86902       -12.05124         6.89526
   H        3.83324        -6.28626         1.28002
   H        6.39359       -10.32766         3.55308
   H       10.75425        -9.33965         0.39222
   H       11.01943       -10.85130         2.51930
   H        8.08922       -12.07299         4.14608
   H       10.14267       -11.69789         7.23414
   H       10.07012       -13.02237         6.06653
   H        5.09150       -15.42838         7.36908
   H        4.08950       -14.10018         7.97976
   H        6.35229       -15.47141         9.51439
   H        4.62474       -15.73305         9.78127
   H        5.34741       -14.15873        10.13476
   H        5.08508       -11.66967         7.77555
   H        7.25776       -10.49238         6.99129
   H       11.47980       -10.01472         5.51830
   H       11.55053        -7.29400         5.31794
   H        9.91014        -5.31866         5.14970
   H        7.90480        -3.95170         4.72564
   H        5.49800        -3.11591         4.35259
   H        2.99495        -4.05857         4.31811
   H        2.76249        -5.84470         4.70309
*
