# ORCA input file
# SCF done       -153.780208587682          0.000367015189
! CAM-B3LYP def2-SVP def2/J RIJCOSX Grid4 TightSCF
%maxcore 5000
%tddft
    Mode sTDDFT
    Ethresh 5.0
    maxcore 5000
end

%pal
  nprocs 6
  end
* xyz 0 1
   C        4.39477        -2.57087         0.20354
   C        5.10579        -3.51837         0.82977
   C        6.13690        -3.33831         1.81105
   C        6.68297        -4.48780         2.26662
   C        6.13731        -5.66791         1.69153
   S        4.88477        -5.25190         0.53484
   C        6.48678        -6.97217         1.94644
   C        7.46908        -7.45758         2.84705
   C        7.57647        -8.81199         2.86337
   C        6.68855        -9.47784         1.97897
   S        5.70327        -8.30729         1.12560
   C        6.59389       -10.82616         1.75496
   C        5.68925       -11.41062         0.85498
   O        4.74266       -10.66880         0.22195
   C        4.07110       -11.48084        -0.62314
   C        4.57474       -12.77172        -0.54469
   C        5.59697       -12.73570         0.40537
   O        6.38715       -13.74036         0.84036
   C        3.03025       -10.95298        -1.42128
   S        2.37267       -11.85294        -2.76477
   C        1.27877       -10.54836        -3.19545
   C        1.43242        -9.49923        -2.30794
   C        2.41110        -9.72298        -1.32028
   S        2.63148        -8.49961        -0.09609
   C        1.74678        -7.21773        -1.04536
   S        0.59076        -7.96967        -2.24123
   C        0.45584       -10.68370        -4.33490
   C       -0.51398        -9.81120        -4.71258
   C       -1.24935        -9.92588        -5.91555
   S       -0.82232       -11.11082        -7.11306
   C       -2.02819       -10.51096        -8.18197
   C       -2.71914        -9.45283        -7.68665
   C       -3.84199        -8.82163        -8.44160
   C       -2.28997        -9.09996        -6.36432
   C       -2.88402        -8.11256        -5.52255
   C       -3.53679        -6.99075        -5.93030
   C       -4.23024        -6.09779        -5.07716
   C       -4.62175        -6.35224        -3.79225
   C       -5.39783        -5.43174        -3.06874
   C       -5.93388        -5.65402        -1.82339
   C       -6.79103        -4.75677        -1.08178
   C       -7.13108        -3.46703        -1.41235
   C       -7.97592        -2.64740        -0.63755
   N       -8.65725        -1.92929        -0.05482
   C       -6.68634        -2.76465        -2.55026
   N       -6.37219        -2.11514        -3.44483
   C       -7.24074        -5.46055         0.11679
   C       -6.63845        -6.74127         0.14434
   C       -5.78231        -6.90455        -1.05041
   O       -5.10921        -7.88011        -1.31817
   C       -6.87239        -7.64947         1.14709
   C       -7.74919        -7.27874         2.17247
   C       -8.34763        -5.99806         2.13616
   C       -8.10691        -5.07733         1.12347
   S       -9.40280        -5.74665         3.49481
   C       -9.03068        -7.34534         4.08303
   C       -8.16101        -8.03260         3.30601
  Br       -9.82657        -7.95633         5.66846
   H        4.56525        -1.52970         0.41281
   H        3.63973        -2.81407        -0.52114
   H        6.42205        -2.35166         2.13051
   H        7.46678        -4.53744         3.00169
   H        8.06337        -6.79577         3.45141
   H        8.26515        -9.36350         3.47908
   H        7.26256       -11.50153         2.26590
   H        4.22626       -13.61552        -1.10632
   H        6.14927       -14.55622         0.38440
   H        1.18303        -6.59342        -0.35626
   H        2.47599        -6.61548        -1.58834
   H        0.64452       -11.55808        -4.94436
   H       -0.73750        -8.96309        -4.08171
   H       -2.16547       -10.99164        -9.13083
   H       -4.17593        -9.48911        -9.23276
   H       -3.52210        -7.88799        -8.90383
   H       -4.67846        -8.61188        -7.77815
   H       -2.78269        -8.28407        -4.45948
   H       -3.51171        -6.71728        -6.97435
   H       -4.52644        -5.15067        -5.51391
   H       -4.38464        -7.29335        -3.32118
   H       -5.61709        -4.49264        -3.56124
   H       -6.39775        -8.61821         1.13881
   H       -8.59098        -4.11542         1.14125
   H       -7.82351        -9.03031         3.51998
*
