# ORCA input file
# SCF done       -191.497436943178          0.000498591964
! CAM-B3LYP def2-SVP def2/J RIJCOSX Grid4 TightSCF
%maxcore 5000
%tddft
    Mode sTDDFT
    Ethresh 5.0
    maxcore 5000
end

%pal
  nprocs 6
  end
* xyz 0 1
   C       -5.75679        -3.07291        -6.05046
   C       -5.97835        -2.50206        -7.29206
   C       -6.26851        -3.34428        -8.36833
   C       -6.49700        -2.77793        -9.64712
   N       -6.67797        -2.30940       -10.67589
   C       -6.33942        -4.74162        -8.20839
   C       -6.63549        -5.56094        -9.32473
   N       -6.87318        -6.23080       -10.22240
   C       -6.11591        -5.31495        -6.95530
   C       -5.82766        -4.47152        -5.90374
   C       -5.54525        -4.82852        -4.49860
   O       -5.46711        -5.95739        -4.05198
   C       -5.36773        -3.55957        -3.78632
   C       -5.43965        -2.47909        -4.74856
   C       -5.21703        -1.14586        -4.52419
   C       -5.28923        -0.15267        -5.52517
   N       -5.33218         0.69956        -6.29225
   C       -4.86087        -0.56832        -3.28592
   N       -4.55925        -0.01933        -2.32375
   C       -5.23461        -3.42153        -2.42437
   C       -5.16357        -4.40567        -1.43531
   C       -5.13298        -4.09633        -0.06228
   C       -5.04126        -5.21953         0.76670
   O       -5.09650        -5.23199         2.11470
   C       -5.47714        -4.02662         2.74425
   C       -4.68262        -2.83226         2.24270
   S       -5.17152        -2.45183         0.52922
   C       -4.96088        -6.40888         0.02951
   S       -5.10973        -6.13175        -1.67744
   C       -4.78343        -7.73754         0.50378
   C       -5.14017        -8.83092        -0.32187
   C       -4.94738       -10.19821         0.07654
   N       -5.23311       -11.17209        -0.79403
   C       -5.69056       -10.89106        -1.98787
   C       -5.94211        -9.52862        -2.35863
   N       -5.66896        -8.56412        -1.51961
   C       -6.49393        -9.20574        -3.62491
   N       -6.93631        -8.97987        -4.65623
   C       -5.95472       -11.94573        -2.89734
   N       -6.17973       -12.77103        -3.65830
   C       -4.44408       -10.56310         1.35105
   C       -3.99441        -9.47296         2.13306
   C       -4.15651        -8.09161         1.71700
   N       -3.54854        -7.25376         2.55635
   S       -2.86563        -8.08558         3.73601
   N       -3.27823        -9.55533         3.25262
   C       -4.32800       -11.94357         1.68855
   C       -4.20471       -12.57513         2.93097
   C       -4.10418       -13.97855         2.83227
   O       -3.94420       -14.85401         3.84870
   C       -4.31703       -14.41704         5.14349
   C       -3.64465       -13.11445         5.51909
   S       -4.28007       -11.75969         4.47480
   C       -4.10413       -14.43493         1.51018
   S       -4.32564       -13.10954         0.40157
   C       -3.92221       -15.71612         0.96068
   C       -3.95450       -16.96966         1.50842
   C       -3.25182       -18.06860         0.79154
   O       -2.80077       -18.04228        -0.32765
   C       -3.17753       -19.18147         1.76960
   C       -2.52960       -20.39157         1.64916
   C       -2.57210       -21.27147         2.73315
   C       -3.26341       -20.91524         3.90649
   C       -3.92951       -19.69171         4.01149
   C       -3.88355       -18.82420         2.93495
   C       -4.48436       -17.50419         2.73238
   C       -5.52979       -16.99069         3.45721
   C       -6.25540       -15.85444         3.05169
   N       -6.85823       -14.92463         2.75171
   C       -6.01436       -17.54999         4.65551
   N       -6.41642       -17.93620         5.65901
   C       -3.27876       -21.81020         5.00487
   N       -3.29196       -22.52230         5.90111
   C       -1.91155       -22.52118         2.65524
   N       -1.36820       -23.52608         2.57570
   H       -5.93775        -1.43718        -7.45643
   H       -6.16989        -6.38329        -6.80861
   H       -5.19364        -2.41078        -2.03277
   H       -5.28760        -4.19570         3.80724
   H       -6.55064        -3.84647         2.59436
   H       -3.61355        -3.04462         2.25961
   H       -4.89657        -1.94156         2.82853
   H       -4.00837       -15.22456         5.81300
   H       -5.40798       -14.30239         5.19538
   H       -2.56485       -13.17641         5.38151
   H       -3.87395       -12.83701         6.54506
   H       -3.62601       -15.70662        -0.08586
   H       -2.00188       -20.65078         0.74392
   H       -4.44962       -19.45008         4.92527
*
