# ORCA input file
# SCF done       -188.490140531968          0.000614974983
! CAM-B3LYP def2-SVP def2/J RIJCOSX Grid4 TightSCF
%maxcore 5000
%tddft
    Mode sTDDFT
    Ethresh 5.0
    maxcore 5000
end

%pal
  nprocs 6
  end
* xyz 0 1
   C        5.84282        -1.08890       -10.99710
   C        6.50046        -1.23233       -12.18859
   C        7.88444        -1.01602       -12.26396
   C        8.59105        -0.65889       -11.14795
   C        7.94515        -0.49919        -9.90528
   C        8.66789        -0.11523        -8.75202
   C        8.00566         0.03555        -7.56424
   C        6.60278        -0.20965        -7.48881
   C        5.87986        -0.57328        -8.58802
   C        6.53982        -0.72233        -9.82891
   C        6.14655        -0.01492        -6.10019
   O        5.01951        -0.08402        -5.66562
   C        7.39021         0.22431        -5.31415
   C        8.46823         0.46557        -6.24949
   C        9.58543         1.22250        -6.00943
   C        9.81560         1.88543        -4.78620
   N        9.99560         2.48449        -3.82353
   C       10.56254         1.50628        -6.98339
   N       11.39366         1.74566        -7.73823
   C        7.36476         0.08849        -3.96108
   C        8.43006        -0.14478        -3.06003
   C        8.37180         0.02941        -1.68741
   C        9.56005        -0.32510        -1.06102
   C       10.53630        -0.82020        -1.94287
   S        9.97228        -0.82568        -3.56705
   C       11.71705        -1.17490        -1.29466
   C       11.64294        -0.94434         0.08890
   S       10.10548        -0.29559         0.59213
   C       12.80971        -1.26843         0.76844
   C       13.78815        -1.74872        -0.08775
   S       13.26022        -1.80801        -1.75750
   C       15.10500        -2.15517         0.25465
   C       15.99336        -2.61233        -0.74591
   C       17.33619        -3.00749        -0.45672
   N       18.13150        -3.42855        -1.45479
   C       17.66700        -3.46807        -2.67172
   C       16.34210        -3.07788        -2.95690
   N       15.54476        -2.66708        -2.01144
   C       17.87434        -2.96757         0.85025
   C       16.99059        -2.52514         1.85876
   C       15.62807        -2.12681         1.56605
   N       14.98294        -1.74595         2.67090
   S       15.96592        -1.87147         3.93029
   N       17.26334        -2.41228         3.16058
   C       19.22409        -3.34466         1.08124
   C       19.90517        -3.33186         2.28870
   C       21.22275        -3.74653         2.14359
   C       21.55928        -4.08671         0.82314
   S       20.22047        -3.88242        -0.25504
   C       22.88860        -4.48672         0.71018
   C       23.57419        -4.44646         1.94131
   S       22.55493        -3.92111         3.25515
   C       24.90673        -4.82144         1.86052
   C       25.27337        -5.15858         0.56532
   S       23.91428        -5.01476        -0.55864
   C       26.48369        -5.59917        -0.00344
   C       27.74906        -5.69239         0.50948
   C       28.88403        -6.17857        -0.25976
   C       28.84143        -6.90241        -1.42360
   C       29.98747        -7.35269        -2.11208
   N       30.87615        -7.74584        -2.72370
   C       27.67447        -7.34736        -2.08018
   N       26.78227        -7.76857        -2.66878
   C       30.09892        -5.83114         0.46680
   C       29.72583        -5.25769         1.71431
   C       30.65366        -4.83792         2.62305
   C       32.02644        -4.96625         2.31415
   C       33.03040        -4.54608         3.20842
   C       34.35393        -4.67341         2.88424
   C       34.73129        -5.22750         1.65200
   C       33.78072        -5.64648         0.76140
   C       32.40861        -5.53011         1.06291
   C       31.42375        -5.96259         0.14523
   C       28.25672        -5.20094         1.81347
   O       27.62673        -4.81422         2.77681
   H        4.77722        -1.25419       -10.93292
   H        5.95812        -1.51302       -13.07909
   H        8.38813        -1.13276       -13.21186
   H        9.65613        -0.48736       -11.20184
   H        9.73231         0.04204        -8.83325
   H        4.81609        -0.74376        -8.51375
   H        6.37302         0.08004        -3.51775
   H        7.51067         0.42986        -1.18482
   H       12.96554        -1.16529         1.82559
   H       18.34151        -3.81215        -3.44230
   H       15.94027        -3.10459        -3.95936
   H       19.44417        -3.02862         3.20960
   H       25.59347        -4.84638         2.68633
   H       26.37533        -5.87734        -1.04591
   H       30.34380        -4.40929         3.56464
   H       32.73385        -4.11977         4.15569
   H       35.11712        -4.34750         3.57510
   H       35.77979        -5.32073         1.41160
   H       34.06597        -6.07501        -0.18822
   H       31.74572        -6.38033        -0.79529
*
