# ORCA input file
# SCF done       -195.246644700616          0.000873554767
! CAM-B3LYP def2-SVP def2/J RIJCOSX Grid4 TightSCF
%maxcore 5000
%tddft
    Mode sTDDFT
    Ethresh 5.0
    maxcore 5000
end

%pal
  nprocs 6
  end
* xyz 0 1
   C       -3.44465        -2.33235        -0.29640
   C       -3.19775        -2.57612        -1.62214
   C       -2.41771        -3.65242        -2.09473
   N       -1.79815        -4.51034        -2.53918
   C       -3.64808        -1.76951        -2.68868
   N       -3.96306        -1.14985        -3.60265
   C       -2.90042        -3.08310         0.82513
   C       -3.24200        -2.41287         2.02669
   C       -2.86593        -2.87535         3.26506
   C       -2.11975        -4.05596         3.32127
   C       -1.78850        -4.72252         2.11610
   C       -2.16667        -4.25396         0.86359
   S       -0.87311        -6.16327         2.42652
   C       -0.93717        -5.86665         4.12921
   C       -1.61143        -4.74336         4.45902
   C       -4.03517        -1.21097         1.71921
   O       -4.49410        -0.42878         2.52304
   C       -4.21691        -1.22460         0.24263
   C       -5.12096        -0.49092        -0.46809
   C       -5.85954         0.64038        -0.05152
   C       -5.62080         1.57366         0.94634
   C       -6.61419         2.54545         0.99966
   C       -7.62706         2.35211         0.03909
   S       -7.33075         1.00835        -0.95660
   C       -8.61765         3.35142         0.22397
   C       -8.22596         4.18132         1.28659
   C       -6.95163         3.70943         1.80591
   C       -6.23489         4.23946         2.83660
   C       -4.97899         3.73085         3.23535
   N       -3.94582         3.35315         3.55667
   C       -6.70181         5.34132         3.58641
   N       -7.08718         6.21782         4.21662
   C       -9.15174         5.19408         1.54996
   C      -10.24490         5.11786         0.71261
   S      -10.12690         3.79375        -0.43290
   C      -11.41149         5.95818         0.73475
   C      -12.68488         5.54034         0.38148
   C      -13.08091         4.27219        -0.04474
   N      -13.43096         3.23237        -0.38408
   S      -13.87934         6.78433         0.58686
   C      -12.67400         7.90346         1.14246
   C      -11.41260         7.31986         1.15921
   C      -10.24477         8.02179         1.49809
   N       -9.28566         8.60049         1.74751
   C      -13.06475         9.22154         1.50327
   C      -14.37213         9.67415         1.58321
   C      -14.43779        11.01115         1.96158
   C      -13.16776        11.58212         2.16070
   S      -11.89794        10.47373         1.89923
   C      -13.34138        12.94350         2.52060
   C      -14.71932        13.22547         2.56512
   C      -15.45405        12.02056         2.21845
   C      -16.80607        11.86094         2.15470
   C      -17.39469        10.62641         1.80526
   N      -17.86706         9.62010         1.52561
   C      -17.70433        12.91011         2.44680
   N      -18.43864        13.75505         2.69218
   C      -14.98855        14.54552         2.91732
   C      -13.83199        15.28511         3.09417
   S      -12.38564        14.30349         2.88451
   C      -13.77757        16.65043         3.47920
   C      -12.78392        17.55738         3.31165
   C      -11.58746        17.57000         2.49170
   C      -11.45080        16.98814         1.25885
   C      -10.30713        17.13140         0.44650
   N       -9.39373        17.20743        -0.24366
   C      -12.48036        16.26342         0.62454
   N      -13.31311        15.70362         0.06669
   C      -10.68343        18.55758         3.06518
   C      -11.39227        19.31294         4.03700
   C      -12.76057        18.78439         4.16539
   O      -13.66679        19.20133         4.84695
   C      -10.81610        20.35981         4.71639
   C       -9.48187        20.66697         4.43368
   C       -8.77970        19.89585         3.47420
   C       -9.36261        18.84258         2.77953
   S       -7.14552        20.44868         3.29763
   C       -7.41011        21.68471         4.47766
   C       -8.66100        21.68873         4.98821
   H       -3.13948        -2.33980         4.16085
   H       -1.89615        -4.79986        -0.02484
   H       -0.45834        -6.56409         4.78874
   H       -1.75350        -4.40010         5.46769
   H       -5.35530        -0.82664        -1.47195
   H       -4.76270         1.53581         1.59024
   H       -9.04868         5.93083         2.32546
   H      -15.22161         9.04710         1.37782
   H      -15.96978        14.97499         3.00879
   H      -14.63420        17.00454         4.04628
   H      -11.37949        20.92563         5.44194
   H       -8.79059        18.27737         2.06205
   H       -6.59869        22.34283         4.72088
   H       -9.00586        22.38402         5.73185
*
