# ORCA input file
# SCF done       -205.160247318388          0.000912306945
! CAM-B3LYP def2-SVP def2/J RIJCOSX Grid4 TightSCF
%maxcore 5000
%tddft
    Mode sTDDFT
    Ethresh 5.0
    maxcore 5000
end

%pal
  nprocs 6
  end
* xyz 0 1
   C       -2.15555        -1.60882        -0.42737
   C       -0.88191        -1.38848         0.02742
   C        0.15618        -2.34288        -0.03565
   N        1.04281        -3.07139        -0.05642
   C       -0.41274        -0.20169         0.62947
   N        0.04675         0.72419         1.12999
   C       -2.63272        -2.84928        -1.02885
   C       -4.00985        -2.70689        -1.33765
   C       -4.75120        -3.70963        -1.91544
   C       -4.10365        -4.91396        -2.20465
   C       -2.72846        -5.04923        -1.89441
   C       -1.97948        -4.03434        -1.30954
   S       -2.13647        -6.61827        -2.33768
   C       -3.69997        -7.07054        -2.92187
   C       -4.62883        -6.09758        -2.79480
   C       -4.45401        -1.36539        -0.94366
   O       -5.58070        -0.91148        -1.06065
   C       -3.27731        -0.68365        -0.38857
   C       -3.24753         0.60768         0.06472
   C       -4.27585         1.56316         0.15498
   C       -4.03971         2.85125         0.64971
   C       -5.18481         3.62607         0.67720
   C       -6.31288         2.92198         0.19923
   S       -5.96441         1.32888        -0.28871
   C       -7.43398         3.78629         0.28359
   C       -7.02243         5.02414         0.80880
   C       -5.59201         4.97065         1.06321
   C       -4.79814         5.96636         1.54913
   C       -3.41217         5.79073         1.75201
   N       -2.28599         5.65595         1.91798
   C       -5.30029         7.24565         1.87167
   N       -5.69892         8.29088         2.12182
   C       -8.07546         5.92785         0.95263
   C       -9.28006         5.38984         0.53575
   S       -9.09827         3.74290        -0.05552
   C      -10.58672         5.99583         0.57879
   C      -11.67820         5.48766        -0.14253
   F      -11.50920         4.42759        -0.94802
   C      -12.94404         6.03428        -0.07021
   F      -13.90564         5.45457        -0.80611
   C      -13.25425         7.13852         0.74066
   C      -12.15469         7.66685         1.43990
   C      -10.88556         7.12131         1.36469
   F       -9.93029         7.69646         2.10416
   F      -12.30530         8.74362         2.22009
   C      -14.59239         7.65686         0.86374
   C      -15.07016         8.56852         1.79012
   C      -16.43620         8.80219         1.64030
   C      -17.00275         8.06749         0.58365
   S      -15.86477         7.09073        -0.21272
   C      -18.39491         8.34011         0.53644
   C      -18.70324         9.24836         1.56576
   C      -17.48564         9.56625         2.29503
   C      -17.38300        10.37250         3.38959
   C      -16.15944        10.60782         4.05248
   N      -15.16982        10.80687         4.59509
   C      -18.51487        11.01916         3.93083
   N      -19.44423        11.53738         4.35856
   C      -20.06240         9.52866         1.64852
   C      -20.79678         8.83890         0.69689
   S      -19.77018         7.86365        -0.34391
   C      -22.19551         8.85033         0.47758
   C      -23.18509         9.18314         1.34682
   C      -23.22434         9.39408         2.78135
   C      -22.43616         8.78747         3.72432
   C      -22.62313         8.93123         5.11587
   N      -22.73078         9.00724         6.25554
   C      -21.41186         7.86685         3.43073
   N      -20.58850         7.08702         3.24979
   C      -24.43938        10.14585         3.07141
   C      -25.24798        10.17719         1.90482
   C      -24.53938         9.50553         0.80385
   O      -24.92889         9.29046        -0.32047
   C      -26.48597        10.77421         1.88452
   C      -26.93991        11.37705         3.06140
   C      -26.11491        11.35899         4.21315
   C      -24.86646        10.74861         4.23835
   S      -26.87272        12.17532         5.54220
   C      -28.26089        12.52047         4.57051
   C      -28.16822        12.05290         3.30628
   H       -5.79757        -3.56688        -2.13661
   H       -0.93554        -4.18947        -1.09503
   H       -3.82941        -8.05364        -3.33107
   H       -5.65364        -6.19890        -3.10304
   H       -2.29484         0.98382         0.41761
   H       -3.06391         3.17142         0.97005
   H       -7.96374         6.92599         1.33219
   H      -14.46640         9.02918         2.54875
   H      -20.50570        10.22190         2.33997
   H      -22.52914         8.60982        -0.52742
   H      -27.08556        10.77456         0.98756
   H      -24.26764        10.76693         5.13396
   H      -29.07438        13.06181         5.01310
   H      -28.93390        12.17372         2.56160
*
