# ORCA input file
# SCF done       -176.936316422270          0.000580003598
! CAM-B3LYP def2-SVP def2/J RIJCOSX Grid4 TightSCF
%maxcore 5000
%tddft
    Mode sTDDFT
    Ethresh 5.0
    maxcore 5000
end

%pal
  nprocs 6
  end
* xyz 0 1
   C       -5.28446        -2.40342        -0.10744
   C       -4.68875        -2.97161        -1.20346
   C       -4.65403        -4.35956        -1.45254
   N       -4.59637        -5.47604        -1.71393
   C       -3.99067        -2.27094        -2.20995
   N       -3.38320        -1.78519        -3.05509
   C       -5.89969        -3.13241         0.99371
   C       -6.26314        -2.20166         1.99839
   C       -6.86119        -2.58119         3.17579
   C       -7.10979        -3.94313         3.37327
   C       -6.74644        -4.86433         2.36257
   C       -6.14308        -4.48063         1.17005
   S       -7.15268        -6.48922         2.81721
   C       -7.78924        -5.93364         4.32609
   C       -7.70651        -4.59500         4.48907
   C       -5.91517        -0.84000         1.56040
   O       -6.14117         0.18384         2.19122
   C       -5.32603        -0.98597         0.21370
   C       -5.04570         0.02169        -0.67263
   C       -5.02964         1.41856        -0.40427
   C       -5.49201         2.30546        -1.37975
   C       -5.77963         3.61993        -1.07279
   C       -5.65668         4.13900         0.22580
   C       -5.04667         3.31201         1.22526
   C       -4.72433         3.62806         2.54522
  Si       -4.30377         2.02186         3.29008
   C       -3.72945         1.33427         1.72092
   C       -4.60952         1.96781         0.83734
   C       -6.09945         5.47793         0.44496
   C       -6.90806         6.24511        -0.41952
   C       -7.10959         7.56516         0.07191
   N       -7.85721         8.44676        -0.63594
   C       -8.58290         8.03193        -1.72435
   C       -9.50840         8.80530        -2.38630
   O       -9.92627        10.09461        -1.95261
   C      -10.14574         8.31720        -3.54480
   C       -9.88629         7.08227        -4.04301
   C       -8.96011         6.16699        -3.41938
   O       -8.72221         5.04405        -3.84284
   C       -8.30266         6.67936        -2.18335
   N       -7.49497         5.86625        -1.56606
   C       -6.53013         7.84874         1.29139
   S       -5.67691         6.43752         1.83866
   C       -6.92251         9.03030         2.01278
   C       -6.81122         9.25322         3.39742
   C       -7.41063        10.35520         3.94619
   C       -8.20234        11.26656         3.20453
   C       -8.43259        10.96837         1.83833
   C       -9.47331        11.51540         0.97802
  Si       -9.33066        10.76203        -0.61159
   C       -7.76932         9.82803        -0.22536
   C       -7.66244         9.93860         1.27402
   C       -8.72067        12.39495         3.89747
   C       -9.13890        13.62334         3.46847
   C       -9.07268        14.31956         2.20947
   C       -8.18158        14.09542         1.18465
   C       -8.22250        14.75113        -0.05964
   N       -8.23242        15.20396        -1.11588
   C       -7.05691        13.25562         1.27534
   N       -6.08923        12.63669         1.29575
   C      -10.01965        15.42908         2.26735
   C      -10.50727        15.54233         3.59432
   C       -9.92608        14.46175         4.41359
   O      -10.08362        14.26393         5.59839
   C      -11.38860        16.52411         3.97497
   C      -11.82021        17.42950         2.99964
   C      -11.33658        17.30133         1.67665
   C      -10.43533        16.31453         1.29256
   S      -12.01030        18.52031         0.64035
   C      -12.91159        19.18018         1.96169
   C      -12.72341        18.52276         3.12638
   H       -7.12818        -1.84856         3.92171
   H       -5.89087        -5.21975         0.42823
   H       -8.19356        -6.65579         5.00849
   H       -8.05287        -4.07244         5.36240
   H       -4.94445        -0.24934        -1.71714
   H       -5.69636         1.94195        -2.37585
   H       -6.17105         4.25669        -1.84901
   H       -5.07865         4.52301         3.02537
   H       -3.38528         0.33610         1.49848
   H      -10.85666         8.97362        -4.02416
   H      -10.37594         6.73585        -4.93910
   H       -6.25344         8.55946         4.00704
   H       -7.27535        10.55628         4.99880
   H      -10.19887        12.20660         1.36605
   H       -6.84142        10.25174        -0.64839
   H       -8.81452        12.27030         4.97365
   H      -11.73509        16.59237         4.99450
   H      -10.09545        16.25670         0.27179
   H      -13.53641        20.03287         1.77960
   H      -13.20035        18.78963         4.05211
*
