# ORCA input file
# SCF done       -203.878646790747          0.000958320254
! CAM-B3LYP def2-SVP def2/J RIJCOSX Grid4 TightSCF
%maxcore 5000
%tddft
    Mode sTDDFT
    Ethresh 5.0
    maxcore 5000
end

%pal
  nprocs 6
  end
* xyz 0 1
   C        0.03772         1.58459         3.83945
   C        0.82172         1.00756         2.87508
   C        2.07918         0.41807         3.12750
   N        3.10597        -0.07570         3.26611
   C        0.51148         0.91907         1.50126
   N        0.33676         0.80641         0.37191
   C        0.38195         1.68539         5.25442
   C       -0.65644         2.37486         5.92893
   C       -0.62749         2.63017         7.27855
   C        0.48148         2.18015         8.00208
   C        1.51427         1.49025         7.32235
   C        1.48422         1.23479         5.95661
   S        2.78789         1.01953         8.40515
   C        1.92907         1.74521         9.73797
   C        0.74839         2.31208         9.39183
  Br        2.67084         1.68576        11.45883
   C       -1.70331         2.73218         4.96041
   O       -2.73387         3.33870         5.20127
   C       -1.26130         2.21178         3.66222
   C       -1.97374         2.28026         2.49341
   C       -3.23541         2.83737         2.22896
   C       -3.81986         2.76068         0.95838
   C       -5.06927         3.34883         0.91373
   C       -5.44531         3.89485         2.16285
   S       -4.27505         3.67658         3.37915
   C       -6.74023         4.45418         2.01866
   C       -7.18276         4.26234         0.69923
   C       -6.14309         3.57187        -0.04527
   C       -6.16395         3.21374        -1.36029
   C       -5.08572         2.53848        -1.97211
   N       -4.21432         1.98945        -2.47508
   C       -7.25858         3.49856        -2.20481
   N       -8.13951         3.73241        -2.89995
   C       -8.47037         4.75919         0.47885
   C       -9.00386         5.33400         1.61384
   S       -7.89377         5.26276         2.97642
   C      -10.30017         5.93399         1.80516
   C      -10.55065         6.76145         2.90487
   C      -11.78989         7.31773         3.11760
   F      -11.93839         8.08826         4.20855
   C      -12.87933         7.08622         2.26374
   C      -12.62874         6.25776         1.16435
   C      -11.38621         5.71103         0.94525
   F      -11.24412         4.91265        -0.12651
   C      -14.19617         7.62062         2.50160
   C      -14.58404         8.63346         3.35453
   C      -15.96654         8.83505         3.33615
   C      -16.63527         7.96073         2.46385
   S      -15.56576         6.91121         1.65530
   C      -18.03062         8.20434         2.55312
   C      -18.23777         9.23973         3.48439
   C      -16.94955         9.67318         4.00224
   C      -16.73469        10.63998         4.93931
   C      -15.44344        11.00191         5.37898
   N      -14.39670        11.31043         5.72954
   C      -17.80941        11.34515         5.52212
   N      -18.69450        11.90772         5.98585
   C      -19.58279         9.51272         3.69759
   C      -20.40990         8.69230         2.94482
   S      -19.48828         7.59717         1.92216
   C      -21.82202         8.65971         2.89798
   C      -22.71266         9.12654         3.81460
   C      -22.59040         9.56042         5.19209
   C      -21.68958         9.11063         6.12209
   C      -21.72113         9.47322         7.48562
   N      -21.70581         9.72784         8.60434
   C      -20.68829         8.15600         5.85858
   N      -19.87715         7.35779         5.70464
   C      -23.77992        10.34650         5.50234
   C      -24.71829        10.19022         4.45048
   C      -24.12444         9.35531         3.38994
   O      -24.63916         8.96730         2.36744
   C      -25.96229        10.77291         4.48122
   C      -26.28815        11.55685         5.59300
   C      -25.33423        11.72544         6.62641
   C      -24.07982        11.12840         6.60109
   S      -25.93872        12.74592         7.89434
   C      -27.44651        12.92523         7.03688
   C      -27.49567        12.25820         5.85899
  Br      -28.81165        13.97601         7.77619
   H       -1.43484         3.15870         7.76066
   H        2.29619         0.70416         5.48877
   H        0.09194         2.80276        10.08697
   H       -1.52412         1.82798         1.61770
   H       -3.32677         2.28325         0.13002
   H       -8.98423         4.70993        -0.46299
   H       -9.76401         6.97784         3.61123
   H      -13.41840         6.03153         0.46439
   H      -13.90107         9.20211         3.95750
   H      -19.95666        10.29045         4.33824
   H      -22.26625         8.25933         1.99162
   H      -26.66248        10.62932         3.67340
   H      -23.38114        11.29065         7.40509
   H      -28.34750        12.25954         5.20382
*
