# ORCA input file
# SCF done       -220.157147301183          0.000451538918
! CAM-B3LYP def2-SVP def2/J RIJCOSX Grid4 TightSCF
%maxcore 5000
%tddft
    Mode sTDDFT
    Ethresh 5.0
    maxcore 5000
end

%pal
  nprocs 6
  end
* xyz 0 1
   C        0.40302         3.61932         4.47423
   C        1.27949         4.44742         3.82225
   C        2.66372         4.49798         4.09022
   N        3.79421         4.58635         4.26812
   C        0.93582         5.32520         2.77216
   N        0.73385         6.04461         1.90020
   C        0.75937         2.62921         5.48155
   C       -0.38956         1.85840         5.78339
   C       -0.37658         0.83288         6.69746
   C        0.82988         0.55625         7.34841
   C        1.97239         1.33655         7.04621
   C        1.95872         2.37179         6.11967
   S        3.35293         0.83238         7.97181
   C        2.39230        -0.40410         8.73936
   C        1.10298        -0.43900         8.32576
  Br        3.18092        -1.52872        10.01534
   C       -1.53557         2.34122         4.99029
   O       -2.66591         1.90690         5.03380
   C       -1.02210         3.50188         4.21856
   C       -1.77103         4.43508         3.55710
   C       -3.12852         4.37201         3.17981
   C       -3.97792         3.28784         2.99563
   C       -5.24740         3.68269         2.59942
   C       -5.38341         5.08592         2.47967
   S       -3.93135         5.90407         2.81148
   C       -6.72199         5.38639         2.13883
   C       -7.43425         4.17028         2.03324
   C       -6.52603         3.06409         2.29623
   C       -6.81674         1.73293         2.25065
   C       -5.84951         0.72945         2.47778
   N       -5.07847        -0.10370         2.63503
   C       -8.11331         1.26677         1.94453
   N       -9.16808         0.89109         1.69764
   C       -8.77547         4.35844         1.73432
   C       -9.08633         5.70909         1.61880
   S       -7.70234         6.76134         1.86630
   C      -10.34220         6.28598         1.37177
   C      -10.59863         7.66062         1.31197
   C      -11.98250         7.97974         1.10078
   N      -12.38835         9.25135         1.07315
   C      -11.46687        10.17663         1.23229
   C      -11.93235        11.58930         1.25382
   O      -13.10497        11.88789         1.23601
   C      -10.85790        12.59688         1.32549
   C       -9.56300        12.29338         1.46065
   C       -9.05244        10.91448         1.54732
   O       -7.87893        10.66167         1.71753
   C      -10.08362         9.85475         1.40565
   N       -9.67073         8.60629         1.44945
   C      -12.78660         6.83514         0.98905
   S      -11.81542         5.39988         1.15338
   C      -14.18184         6.78751         0.81724
   C      -15.03123         7.86704         0.59260
   C      -16.35733         7.46326         0.50964
   C      -16.52559         6.07180         0.68585
   S      -15.04514         5.25848         0.91978
   C      -17.90419         5.77004         0.65286
   C      -18.61777         6.97155         0.45435
   C      -17.67080         8.06728         0.33387
   C      -17.97098         9.37398         0.09015
   C      -16.99153        10.36928        -0.12251
   N      -16.21984        11.18473        -0.35027
   C      -19.31173         9.80373        -0.01773
   N      -20.40610        10.13609        -0.09987
   C      -19.99313         6.78671         0.45830
   C      -20.34487         5.45935         0.66357
   S      -18.93165         4.42234         0.81036
   C      -21.63270         4.88274         0.72524
   C      -22.82579         5.48941         0.97312
   C      -23.19169         6.78883         1.49849
   C      -22.48299         7.54107         2.39929
   C      -22.96737         8.73234         2.98002
   N      -23.31717         9.70204         3.48349
   C      -21.23537         7.16298         2.93185
   N      -20.23258         6.88125         3.41504
   C      -24.58270         7.02657         1.12764
   C      -25.13225         5.82189         0.61926
   C      -24.08209         4.78757         0.57953
   O      -24.18610         3.62777         0.25544
   C      -26.44562         5.71909         0.22892
   C      -27.24782         6.86046         0.33167
   C      -26.68247         8.06416         0.81934
   C      -25.35690         8.16653         1.22358
   S      -27.84611         9.35213         0.84617
   C      -29.06268         8.27187         0.21859
   C      -28.62085         7.01099        -0.00412
  Br      -30.79874         8.91053        -0.08584
   H       -1.26891         0.26241         6.90192
   H        2.85314         2.94072         5.92845
   H        0.37321        -1.13656         8.69413
   H       -1.28821         5.37481         3.31449
   H       -3.66984         2.27071         3.14717
   H       -9.50886         3.58161         1.61181
   H      -11.19381        13.62403         1.28047
   H       -8.80778        13.06491         1.52713
   H      -14.66296         8.87485         0.51630
   H      -20.71680         7.56237         0.28607
   H      -21.69911         3.82535         0.48706
   H      -26.84243         4.78812        -0.14423
   H      -24.96515         9.10473         1.58022
   H      -29.23643         6.21875        -0.38921
*
