# ORCA input file
# SCF done       -214.113224558233          0.000408916499
! CAM-B3LYP def2-SVP def2/J RIJCOSX Grid4 TightSCF
%maxcore 5000
%tddft
    Mode sTDDFT
    Ethresh 5.0
    maxcore 5000
end

%pal
  nprocs 6
  end
* xyz 0 1
   C       -6.80484        -2.84878         8.81737
   C       -6.91808        -2.65790         7.46569
   C       -6.27206        -1.62145         6.76072
   N       -5.75112        -0.81157         6.13694
   C       -7.77016        -3.42573         6.64439
   N       -8.48358        -4.00315         5.95521
   C       -6.20049        -1.90480         9.75396
   C       -6.72438        -2.14312        11.03849
   C       -6.36929        -1.36233        12.11967
   C       -5.46294        -0.32823        11.91770
   C       -4.92734        -0.09501        10.64463
   C       -5.29503        -0.87696         9.55486
  Cl       -3.79779         1.17596        10.41505
  Cl       -4.99856         0.66591        13.23700
   C       -7.64004        -3.30409        10.99333
   O       -8.30575        -3.76533        11.88827
   C       -7.51736        -3.83303         9.60536
   C       -7.97105        -5.08501         9.32425
   C       -7.63232        -5.94870         8.25788
   C       -8.36637        -7.05332         7.84896
   C       -7.76494        -7.72687         6.79312
   C       -6.52671        -7.15940         6.41980
   S       -6.12627        -5.79330         7.35355
   C       -5.99170        -7.90398         5.34808
   C       -6.89628        -8.93790         5.02194
   C       -8.01969        -8.88122         5.94792
   C       -9.05258        -9.76445         6.04385
   C       -9.13659       -10.93035         5.24973
   N       -9.19612       -11.90776         4.65497
   C      -10.07965        -9.60927         7.00069
   N      -10.91073        -9.48756         7.78046
   C       -6.49130        -9.69446         3.93240
   C       -5.26407        -9.26261         3.43647
   S       -4.61699        -7.89668         4.33483
   C       -4.57842        -9.81225         2.33804
   C       -5.08395       -10.74809         1.42172
   C       -4.12733       -11.12658         0.41913
   N       -4.41408       -12.06971        -0.48121
   C       -5.62457       -12.57898        -0.45228
   C       -5.91443       -13.69479        -1.39331
   O       -5.05144       -14.22759        -2.05360
   C       -7.32414       -14.12513        -1.42546
   C       -8.27123       -13.62564        -0.62490
   C       -8.02736       -12.56990         0.37527
   O       -8.91040       -12.09293         1.05150
   C       -6.61579       -12.10686         0.46306
   N       -6.32927       -11.22871         1.39737
   C       -2.90032       -10.45695         0.54823
   S       -2.94542        -9.39799         1.92197
   C       -1.77686       -10.60846        -0.28493
   C       -1.75042       -11.28732        -1.49980
   C       -0.48656       -11.26484        -2.07070
   C        0.46864       -10.59028        -1.27922
   S       -0.20896        -9.94199         0.14950
   C        1.72479       -10.67843        -1.91388
   C        1.57061       -11.40106        -3.12262
   C        0.17199       -11.77070        -3.26753
   C       -0.41725       -12.41132        -4.31527
   C        0.31156       -12.91118        -5.41795
   N        0.87771       -13.34827        -6.31310
   C       -1.81684       -12.59129        -4.40100
   N       -2.95189       -12.69681        -4.51612
   C        2.75501       -11.53799        -3.83036
   C        3.82901       -10.94033        -3.17892
   S        3.33239       -10.19472        -1.65065
   C        5.20471       -10.87161        -3.47195
   C        5.90139       -11.21096        -4.60034
   C        7.35222       -11.16657        -4.69981
   C        8.24753       -11.04103        -3.67038
   C        9.64935       -11.02366        -3.84080
   N       10.79461       -10.99577        -3.90540
   C        7.92498       -10.94689        -2.29919
   N        7.75217       -10.88547        -1.16549
   C        7.70716       -11.36687        -6.10166
   C        6.53272       -11.60060        -6.83606
   C        5.35864       -11.53819        -5.94182
   O        4.20415       -11.68351        -6.27656
   C        6.55489       -11.83822        -8.19521
   C        7.78412       -11.83992        -8.84239
   C        8.96037       -11.60129        -8.12041
   C        8.93173       -11.36514        -6.75034
  Cl       10.47199       -11.59683        -8.93316
  Cl        7.85906       -12.13331       -10.53097
   H       -6.78811        -1.55011        13.09565
   H       -4.86311        -0.67418         8.58820
   H       -8.63746        -5.51030        10.06946
   H       -9.31163        -7.31179         8.29109
   H       -7.03093       -10.50895         3.48335
   H       -7.54745       -14.89989        -2.14643
   H       -9.29323       -13.97618        -0.67584
   H       -2.62424       -11.76846        -1.90084
   H        2.85897       -12.03808        -4.77617
   H        5.79097       -10.47052        -2.65318
   H        5.63907       -12.01917        -8.73553
   H        9.85797       -11.18274        -6.23095
*
