# ORCA input file
# SCF done       -210.172649014172          0.000669480353
! CAM-B3LYP def2-SVP def2/J RIJCOSX Grid4 TightSCF
%maxcore 5000
%tddft
    Mode sTDDFT
    Ethresh 5.0
    maxcore 5000
end

%pal
  nprocs 6
  end
* xyz 0 1
   C      -13.52519        13.32209         0.02342
   C      -13.22504        11.99372         0.18579
   C      -14.00936        10.94310        -0.33449
   N      -14.61450        10.05097        -0.72800
   C      -12.15902        11.51869         0.97249
   N      -11.31696        11.08865         1.62455
   C      -14.75197        13.83017        -0.58303
   C      -14.95873        15.16854        -0.13771
   C      -16.05438        15.88925        -0.51640
   C      -17.00286        15.29742        -1.38096
   C      -16.79090        13.96712        -1.84574
   C      -15.64935        13.24203        -1.43244
   C      -17.74033        13.39199        -2.71441
   C      -18.84902        14.09355        -3.10310
   C      -19.05765        15.40261        -2.64408
   C      -18.15425        15.99169        -1.80156
   C      -13.83115        15.57429         0.71790
   O      -13.68124        16.61312         1.31987
   C      -12.85740        14.44528         0.64556
   C      -11.57977        14.66378         1.06331
   C      -10.40841        13.93617         0.76223
   C      -10.17106        13.04395        -0.27360
   C       -8.86935        12.56073        -0.26324
   C       -8.09579        13.08729         0.78961
   S       -8.96796        14.19023         1.74345
   C       -6.79535        12.51967         0.71492
   C       -6.75473        11.63844        -0.37491
   C       -8.05374        11.62648        -1.02258
   C       -8.43671        10.88619        -2.10230
   C       -7.55635         9.99785        -2.75540
   N       -6.84254         9.27190        -3.28310
   C       -9.74527        10.96856        -2.62343
   N      -10.81068        11.04934        -3.03983
   C       -5.50338        11.03771        -0.54348
   C       -4.60010        11.46299         0.40070
   S       -5.29689        12.60276         1.53165
   C       -3.21901        11.08324         0.50940
   C       -2.43024        11.03982         1.62892
   O       -1.19808        10.60866         1.32715
   C       -1.16940        10.35886         0.01291
   C       -2.37949        10.62544        -0.56367
   C       -2.72814        10.62837        -2.00131
   O       -3.30852        11.56745        -2.51554
   C       -2.33427         9.45944        -2.76451
   C       -1.77131         8.26467        -2.36670
   C       -1.55450         7.38538        -3.42377
   C       -1.96414         7.89759        -4.64340
   S       -2.63198         9.48480        -4.47122
   C       -1.85827         7.27157        -5.91830
   C       -1.14244         6.13014        -6.23179
   C       -1.22342         5.82077        -7.58946
   C       -2.02002         6.72867        -8.30870
   S       -2.65740         7.96300        -7.31694
   C       -2.02755         6.34103        -9.67236
   C       -1.21712         5.19534        -9.81727
   C       -0.70314         4.82069        -8.50967
   C        0.08891         3.75432        -8.20313
   C        0.51222         2.81185        -9.16554
   N        0.85267         2.02061        -9.92161
   C        0.52478         3.50787        -6.88366
   N        0.88017         3.31149        -5.81121
   C       -1.11495         4.76212       -11.13378
   C       -1.84781         5.55796       -12.00243
   S       -2.70028         6.84854       -11.14753
   C       -2.04907         5.46514       -13.39698
   C       -1.24688         4.86668       -14.32611
   C       -1.57524         4.72058       -15.73270
   C       -2.83037         4.78249       -16.28000
   C       -3.10158         4.60058       -17.65207
   N       -3.38504         4.46788       -18.75657
   C       -4.01821         4.99206       -15.54865
   N       -5.02460         5.13729       -15.01503
   C       -0.34724         4.40062       -16.44751
   C        0.70450         4.26465       -15.49730
   C        0.18305         4.50114       -14.14040
   O        0.81961         4.47366       -13.10909
   C        1.98293         3.96849       -15.87327
   C        2.27354         3.79353       -17.24484
   C        1.22734         3.93149       -18.20255
   C       -0.08770         4.23679       -17.78237
   C        1.53081         3.76113       -19.56857
   C        2.80568         3.46958       -19.97145
   C        3.83491         3.33445       -19.02786
   C        3.57423         3.49145       -17.69348
   H      -16.19658        16.89932        -0.16185
   H      -15.50563        12.24150        -1.80937
   H      -17.57648        12.38289        -3.06276
   H      -19.57207        13.64314        -3.76650
   H      -19.93739        15.94220        -2.96156
   H      -18.30941        16.99963        -1.44527
   H      -11.44335        15.56639         1.65181
   H      -10.90577        12.80333        -1.02023
   H       -5.26799        10.32555        -1.31162
   H       -2.64270        11.27893         2.65203
   H       -0.23748        10.04111        -0.41168
   H       -1.53772         8.03612        -1.34287
   H       -1.12748         6.40608        -3.30928
   H       -0.57989         5.57076        -5.50790
   H       -0.54869         3.90976       -11.45781
   H       -2.93530         5.97618       -13.75598
   H        2.76263         3.86937       -15.13272
   H       -0.85676         4.34326       -18.53102
   H        0.73477         3.86478       -20.29126
   H        3.02803         3.34155       -21.02021
   H        4.83536         3.10569       -19.36345
   H        4.36247         3.38817       -16.96217
*
