# ORCA input file
# SCF done       -211.951712928360          0.000642201122
! CAM-B3LYP def2-SVP def2/J RIJCOSX Grid4 TightSCF
%maxcore 5000
%tddft
    Mode sTDDFT
    Ethresh 5.0
    maxcore 5000
end

%pal
  nprocs 6
  end
* xyz 0 1
   C        1.07154         0.86830         0.19623
   C       -0.05306         1.20747         0.90371
   C       -0.37116         0.67787         2.17224
   N       -0.68317         0.27337         3.19975
   C       -1.07301         2.04444         0.41335
   N       -1.94175         2.69929         0.04500
   C        2.01593        -0.17399         0.58578
   C        2.73054        -0.59736        -0.57310
   C        3.65926        -1.59648        -0.51755
   C        3.92757        -2.21931         0.72231
   C        3.23223        -1.78498         1.88809
   C        2.27107        -0.75167         1.79999
   C        3.51629        -2.40818         3.12008
   C        4.43904        -3.41559         3.19852
   C        5.12171        -3.84392         2.05023
   C        4.87157        -3.25856         0.83867
   C        2.30693         0.21257        -1.72688
   O        2.64838         0.11147        -2.88288
   C        1.39237         1.25072        -1.16326
   C        1.09875         2.34002        -1.92454
   C        0.59142         3.59353        -1.51557
   C        0.60754         4.16941        -0.25361
   C        0.02997         5.43200        -0.24441
   C       -0.43275         5.83358        -1.51405
   S       -0.12817         4.66459        -2.71242
   C       -1.02916         7.11195        -1.38612
   C       -0.94417         7.51832        -0.04181
   C       -0.29322         6.46633         0.72318
   C       -0.07751         6.42167         2.06878
   C       -0.47436         7.46262         2.93492
   N       -0.80693         8.30197         3.64109
   C        0.54462         5.30927         2.67488
   N        1.05402         4.39933         3.15172
   C       -1.50033         8.77444         0.18610
   C       -2.02091         9.33313        -0.96995
   S       -1.81456         8.27085        -2.36063
   C       -2.68771        10.58368        -1.12576
   C       -3.47718        10.86149        -2.19682
   C       -4.19683        12.07360        -2.32883
   C       -4.00467        13.12976        -1.49582
   C       -2.91129        13.04791        -0.44942
   C       -2.58440        11.60471        -0.00259
   N       -1.27781        11.50530         0.60687
   C       -0.37704        12.31031         0.25826
   C       -0.62315        13.41391        -0.68968
   N       -1.78567        13.76207        -1.01600
   F        0.42324        14.03732        -1.21375
   F        0.83604        12.19076         0.78001
   C       -4.68869        14.36935        -1.63562
   C       -4.42555        15.56441        -0.98547
   C       -5.29820        16.57805        -1.37225
   C       -6.24540        16.15784        -2.32431
   S       -6.04771        14.51580        -2.74586
   C       -7.08577        17.24813        -2.65466
   C       -6.65867        18.36921        -1.90238
   C       -5.52955        17.98147        -1.07119
   C       -4.84277        18.75519        -0.18293
   C       -5.15923        20.11236         0.03993
   N       -5.41392        21.21368         0.22972
   C       -3.77920        18.23946         0.58764
   N       -2.92405        17.81338         1.22163
   C       -7.42180        19.49143        -2.15965
   C       -8.43880        19.24772        -3.09108
   S       -8.42934        17.57514        -3.64979
   C       -9.31961        20.26196        -3.50057
   C      -10.38818        20.21510        -4.35744
   C      -11.24164        21.33174        -4.72433
   C      -11.07687        22.64971        -4.38592
   C      -11.94732        23.68346        -4.79212
   N      -12.61302        24.57151        -5.08582
   C      -10.02357        23.17718        -3.60981
   N       -9.19678        23.68597        -2.99609
   C      -12.31439        20.80582        -5.56339
   C      -12.10778        19.40744        -5.74190
   C      -10.89728        19.00555        -5.01569
   O      -10.41801        17.88381        -4.96559
   C      -12.95517        18.63810        -6.48595
   C      -14.07427        19.24454        -7.09898
   C      -14.29013        20.64214        -6.92580
   C      -13.39350        21.41235        -6.14892
   C      -15.40958        21.23722        -7.54152
   C      -16.27557        20.48936        -8.29256
   C      -16.06251        19.11333        -8.46161
   C      -14.98496        18.50396        -7.87754
   H        4.18409        -1.90836        -1.40829
   H        1.76833        -0.43262         2.69954
   H        2.98574        -2.07688         4.00053
   H        4.64772        -3.88863         4.14636
   H        5.84713        -4.63961         2.13035
   H        5.39462        -3.58399        -0.04867
   H        1.35125         2.24312        -2.97635
   H        1.06042         3.69728         0.59907
   H       -1.53576         9.26648         1.13937
   H       -3.59413        10.11759        -2.97150
   H       -4.91433        12.15093        -3.13264
   H       -3.21624        13.61642         0.43906
   H       -3.29867        11.30212         0.77603
   H       -3.61640        15.69347        -0.29201
   H       -7.27619        20.45859        -1.71157
   H       -9.09967        21.21860        -3.04195
   H      -12.77440        17.58005        -6.60490
   H      -13.58873        22.46671        -6.03619
   H      -15.56950        22.29713        -7.40879
   H      -17.12996        20.95479        -8.76056
   H      -16.75606        18.53834        -9.05672
   H      -14.81561        17.44463        -8.00415
*
