# ORCA input file
# SCF done       -175.954111109371          0.000770524667
! CAM-B3LYP def2-SVP def2/J RIJCOSX Grid4 TightSCF
%maxcore 5000
%tddft
    Mode sTDDFT
    Ethresh 5.0
    maxcore 5000
end

%pal
  nprocs 6
  end
* xyz 0 1
   C       -1.28443       -12.42127       -10.01587
   C       -0.42743       -11.46208       -10.48258
   F       -0.20315       -11.36149       -11.80205
   C        0.23575       -10.55212        -9.63071
   F        1.03480        -9.63104       -10.19435
   C        0.05289       -10.55746        -8.26256
   C       -0.79856       -11.57224        -7.75240
   C       -1.47313       -12.49202        -8.62748
   N       -2.22842       -13.36075        -7.94962
   S       -2.08449       -13.05897        -6.37929
   N       -1.06411       -11.82406        -6.47132
   C        0.66460        -9.61380        -7.35788
   C        2.01818        -9.06352        -7.40007
   N        2.33748        -8.35728        -6.34926
   C        1.24041        -8.36972        -5.54611
   C        0.14678        -9.12357        -6.18870
   C       -1.03109        -9.08162        -5.36244
   S       -2.57245        -9.37860        -5.86380
   C       -0.56952        -8.52211        -4.12104
   C        0.80625        -8.02098        -4.29014
   N        1.24542        -7.43867        -3.13740
   C        0.26484        -7.56036        -2.28725
   C       -0.90983        -8.25611        -2.80974
   C       -2.08737        -8.66402        -2.09793
   C       -2.84867        -9.68302        -2.64208
   C       -4.04359       -10.07412        -2.03236
   C       -5.00622       -10.99619        -2.44537
   C       -4.95580       -11.76555        -3.72150
   C       -4.70177       -13.26256        -3.46221
   N       -4.27299       -13.91244        -4.69079
   C       -6.19385       -11.50892        -4.61533
   N       -7.33743       -12.34252        -4.27288
   C       -6.03062       -10.99074        -1.43386
   C       -7.18582       -11.68074        -1.33742
   C       -8.09055       -11.51682        -0.17490
   C       -7.65094       -10.49772         0.83020
   C       -6.49187        -9.81831         0.71931
   C       -5.64631       -10.02449        -0.39444
   C       -4.43961        -9.45962        -0.77887
   C       -3.61471        -8.46258        -0.21193
   C       -2.48161        -8.07164        -0.85895
   C       -8.25643       -12.80991         0.58837
   C       -7.30896       -13.75244         0.65943
   C       -7.43951       -14.97226         1.39441
   C       -6.38375       -15.98491         1.43876
   N       -6.67537       -17.04895         2.13046
   C       -7.93905       -16.83934         2.59297
   C       -8.45214       -15.52516         2.14888
   C       -9.77836       -15.32527         2.67798
   S      -10.69473       -13.96068         2.67912
   C      -10.08980       -16.56586         3.35024
   C       -8.91194       -17.45561         3.33353
   N       -9.16052       -18.59374         4.03692
   C      -10.38050       -18.47310         4.47836
   C      -11.04488       -17.23550         4.06891
   C      -12.41550       -16.89337         4.36678
   C      -13.25440       -16.29616         3.44586
   F      -12.82587       -16.07711         2.19598
   C      -14.59114       -15.95156         3.74964
   F      -15.32353       -15.38046         2.78327
   C      -15.15154       -16.18480         4.97434
   C      -14.34396       -16.81048         5.93702
   C      -12.98414       -17.17591         5.63414
   N      -12.38326       -17.76033         6.66866
   S      -13.42278       -17.84475         7.88980
   N      -14.68240       -17.14681         7.18175
   H       -1.78678       -13.09701       -10.68672
   H        2.72656        -9.21754        -8.19446
   H        0.37527        -7.18626        -1.28412
   H       -2.51203       -10.18620        -3.53158
   H       -4.09535       -11.40174        -4.28994
   H       -5.59718       -13.71260        -3.00903
   H       -3.88053       -13.35054        -2.74514
   H       -5.02241       -13.93168        -5.37328
   H       -3.99148       -14.86928        -4.51073
   H       -5.88091       -11.63459        -5.66220
   H       -6.48653       -10.46461        -4.48475
   H       -7.22858       -13.27812        -4.64963
   H       -8.18460       -11.95262        -4.66861
   H       -7.49046       -12.36418        -2.11835
   H       -9.08517       -11.23943        -0.55329
   H       -8.30542       -10.35546         1.67613
   H       -6.20345        -9.09816         1.47132
   H       -3.89753        -8.00516         0.72479
   H       -1.86499        -7.28979        -0.44247
   H       -9.17874       -12.92171         1.14023
   H       -6.37343       -13.62531         0.12758
   H       -5.42620       -15.89172         0.95485
   H      -10.83538       -19.24006         5.07851
   H      -16.16976       -15.91017         5.19019
*
