# ORCA input file
# SCF done       -223.161636558385          0.000999565425
! CAM-B3LYP def2-SVP def2/J RIJCOSX Grid4 TightSCF
%maxcore 5000
%tddft
    Mode sTDDFT
    Ethresh 5.0
    maxcore 5000
end

%pal
  nprocs 6
  end
* xyz 0 1
   C       14.11568        -0.00733        -0.77058
   C       15.21646         0.91365        -1.14293
   O       16.14772         0.65380        -1.88471
   C       14.88440         2.19953        -0.50446
   C       13.70947         2.05906         0.23768
   C       13.31455         0.65634         0.23799
   C       12.57540         0.03885         1.21152
   C       12.52807        -1.36270         1.36501
   N       12.53264        -2.49331         1.56432
   C       11.88574         0.72153         2.23282
   N       11.29802         1.23276         3.07578
   C       13.12334         3.16208         0.86963
   C       13.72804         4.38588         0.74966
   C       14.93985         4.55654         0.04482
   C       15.55357         3.43729        -0.59000
   C       16.78660         3.60847        -1.25237
   C       17.37036         4.84458        -1.31698
   C       16.75345         5.95459        -0.71925
   C       15.57105         5.81376        -0.04585
   C       13.95157        -1.20198        -1.39531
   C       12.78908        -2.01260        -1.43261
   S       11.18316        -1.32192        -1.35308
   C       10.47930        -2.87118        -1.53077
   C       11.39946        -3.87202        -1.62830
   C       12.72631        -3.38351        -1.60185
   C       13.90268        -4.29769        -1.67679
   C       13.52120        -5.58167        -2.41945
   C       12.31289        -6.19986        -1.69648
   C       11.07172        -5.31784        -1.82850
   C       13.18027        -5.35147        -3.88210
   C       13.13232        -6.36477        -4.73949
   C       12.83485        -3.98459        -4.27150
   C       11.67474        -3.64130        -4.84150
   C       11.20766        -2.28191        -5.03160
   C       12.03844        -1.19017        -5.00753
   C       11.50439         0.11346        -5.08658
   C       12.11952         1.35625        -5.08259
   C       13.58079         1.61965        -5.20620
   C       13.86452         2.28496        -6.58047
   N       15.26246         2.27612        -6.95507
   C       14.16577         2.46968        -4.06382
   N       15.61966         2.49104        -4.14760
   C       11.06652         2.34124        -5.16941
   C       11.08574         3.68758        -5.15219
   C        9.85700         4.49197        -5.40649
   C        8.59583         3.69952        -5.47845
   C        8.57637         2.35713        -5.39445
   C        9.78350         1.62998        -5.25507
   C       10.06017         0.28061        -5.18301
   C        9.22919        -0.86266        -5.22477
   C        9.79143        -2.09460        -5.16384
   C       10.20471         5.19246        -6.71065
   C       10.02252         4.62752        -7.90535
   C       10.42437         5.16901        -9.17476
   S        9.63879         4.55695       -10.60686
   C       10.59178         5.57028       -11.61005
   C       11.47575         6.32460       -10.90149
   C       11.38465         6.09872        -9.50365
   C       12.27551         6.80678        -8.53281
   C       13.46938         7.47304        -9.23447
   C       12.96032         8.26065       -10.44174
   C       12.46164         7.27947       -11.49949
   C       14.21390         8.30146        -8.21665
   C       14.00611         9.61594        -8.06626
   C       15.16002         7.64914        -7.34097
   C       15.57808         6.36587        -7.38630
   C       16.57543         5.88183        -6.49480
   C       17.34654         4.77210        -6.61430
   C       18.08083         4.27059        -5.42083
   O       18.25281         4.88109        -4.38492
   C       18.48705         2.89961        -5.76094
   C       18.17304         2.64292        -7.09593
   C       17.56190         3.82833        -7.69308
   C       17.42444         4.05693        -9.03523
   C       17.03430         5.27658        -9.62571
   N       16.76597         6.23645       -10.19695
   C       17.74807         3.11640       -10.03685
   N       17.99103         2.40739       -10.90652
   C       18.43232         1.38431        -7.65473
   C       18.97232         0.40654        -6.86060
   C       19.28451         0.62983        -5.50141
   C       19.05234         1.91325        -4.92919
   C       19.37262         2.13486        -3.57525
   C       19.88012         1.12141        -2.81055
   C       20.10026        -0.14832        -3.36709
   C       19.81627        -0.38775        -4.68360
   H       12.20370         3.05439         1.42162
   H       13.27965         5.25328         1.21236
   H       17.26243         2.74383        -1.68909
   H       18.30390         4.98139        -1.83935
   H       17.22851         6.92187        -0.78735
   H       15.10402         6.66308         0.43194
   H       14.79772        -1.53994        -1.98761
   H        9.41071        -2.95618        -1.55766
   H       14.20865        -4.55566        -0.65777
   H       14.75528        -3.80496        -2.14921
   H       14.35629        -6.28770        -2.35847
   H       12.56471        -6.31991        -0.64075
   H       12.09697        -7.18694        -2.10747
   H       10.31208        -5.62917        -1.10824
   H       10.64291        -5.43932        -2.82740
   H       13.37475        -7.37235        -4.44557
   H       12.87038        -6.21467        -5.77262
   H       13.54824        -3.21653        -4.01188
   H       10.95849        -4.42047        -5.07329
   H       13.10819        -1.31857        -4.92834
   H       14.10716         0.65749        -5.19211
   H       13.53696         3.32810        -6.54558
   H       13.28195         1.77768        -7.35457
   H       15.78597         2.53990        -6.11927
   H       15.54752         1.33174        -7.19825
   H       13.79840         2.07108        -3.10148
   H       13.81319         3.49998        -4.14713
   H       16.00751         1.62491        -3.78046
   H       15.99832         3.24692        -3.58641
   H       12.00075         4.25093        -5.03568
   H        9.75126         5.26457        -4.63358
   H        7.68818         4.26828        -5.61222
   H        7.64286         1.81487        -5.44278
   H        8.15883        -0.74191        -5.30843
   H        9.16890        -2.97807        -5.19423
   H       10.67870         6.15402        -6.60539
   H        9.50742         3.67603        -7.95627
   H       10.44611         5.54951       -12.67189
   H       12.62771         6.10247        -7.77421
   H       11.70265         7.58922        -8.02161
   H       14.14497         6.70111        -9.61334
   H       13.76390         8.87122       -10.85503
   H       12.13835         8.91582       -10.14641
   H       13.31028         6.71438       -11.89766
   H       12.00334         7.81306       -12.33490
   H       13.32220        10.17066        -8.68203
   H       14.53212        10.18301        -7.31624
   H       15.61962         8.29877        -6.60437
   H       15.17685         5.66570        -8.10276
   H       16.72334         6.44170        -5.57552
   H       18.19105         1.17787        -8.68436
   H       19.16299        -0.57376        -7.27390
   H       19.20819         3.11760        -3.16467
   H       20.11574         1.29051        -1.77026
   H       20.49962        -0.93621        -2.74568
   H       19.99231        -1.36245        -5.11600
*
