# ORCA input file
# SCF done       -165.738048054173          0.000913915326
! CAM-B3LYP def2-SVP def2/J RIJCOSX Grid4 TightSCF
%maxcore 5000
%tddft
    Mode sTDDFT
    Ethresh 5.0
    maxcore 5000
end

%pal
  nprocs 6
  end
* xyz 0 1
   C        4.03921         5.07455         6.55181
   S        3.53376         4.37647         5.05480
   C        4.74442         3.13712         5.19256
   O        4.85467         2.15538         4.27328
   C        5.49444         3.27311         6.33354
   C        5.05983         4.38774         7.10813
   C        6.54459         2.36467         6.75539
   C        6.68076         1.84216         7.99995
   C        7.77019         0.87798         7.97724
   C        8.20901         0.11880         9.06261
   N        8.55817        -0.54162         9.93734
   C        8.26378         0.79130         6.70381
   C        7.53991         1.72625         5.88294
   C        7.80464         2.01735         4.56639
   C        8.53076         1.13984         3.61752
   C        8.74779         1.86283         2.47658
   C        8.16923         3.17092         2.65106
   C        7.56785         3.24813         3.88707
   C        8.21147         4.19033         1.69221
   N        8.24297         5.02293         0.90144
   C        8.75957        -0.23464         3.88756
   C        9.60097        -1.06593         3.22732
   C        9.88382        -2.41183         3.63587
   C        9.45495        -2.92073         4.85209
   C        9.84517        -4.20028         5.25904
   C        9.60861        -4.88250         6.45533
   C        8.83778        -4.37485         7.62113
   C        7.69491        -5.33473         8.01559
   N        6.60622        -4.55959         8.57013
   C        9.76770        -4.08733         8.82070
   N        9.00237        -3.59492         9.95215
   C       10.28610        -6.15042         6.34454
   C       10.42704        -7.17860         7.20907
   C       11.34119        -8.31283         6.90530
   C       11.77323        -8.40385         5.48162
   C       11.60306        -7.38808         4.61435
   C       10.91862        -6.21584         5.01876
   C       10.65962        -5.01773         4.37766
   C       11.06311        -4.49446         3.12902
   C       10.69718        -3.23119         2.78756
   C       12.53854        -7.98701         7.79792
   C       13.38084        -6.99421         7.50458
   C       14.52329        -6.60970         8.28647
   C       15.26817        -7.39434         9.11644
   C       16.40529        -6.62863         9.57551
   C       17.36759        -7.10006        10.47409
   N       18.15788        -7.49797        11.20717
   C       16.37461        -5.38827         8.98629
   C       15.19223        -5.30414         8.18322
   C       14.70478        -4.17222         7.56057
   C       15.47744        -2.95553         7.21550
   C       14.57569        -1.99298         6.84617
   C       13.25385        -2.55269         6.91763
   C       13.33728        -3.87747         7.29562
   C       12.08605        -1.82887         6.66236
   N       11.13836        -1.20936         6.46186
   C       16.89679        -2.90304         7.14369
   C       17.61790        -1.76217         7.00777
   C       19.03268        -1.70936         6.91542
   S       19.82227        -0.15136         6.76689
   C       21.38506        -0.90308         6.71649
   O       22.51950        -0.19794         6.59758
   C       21.29630        -2.26563         6.80996
   C       19.97411        -2.71459         6.92200
   H        3.53983         5.95166         6.91001
   H        4.19878         2.26773         3.57654
   H        5.52489         4.66069         8.03801
   H        6.08353         2.05924         8.86587
   H        9.13395         0.23459         6.41239
   H        9.21704         1.52933         1.57027
   H        7.10814         4.12018         4.31098
   H        8.18850        -0.63074         4.71255
   H       10.14533        -0.69906         2.36695
   H        8.85275        -2.32858         5.52015
   H        8.36131        -3.42986         7.34524
   H        8.08359        -6.09718         8.70927
   H        7.32687        -5.84697         7.11979
   H        6.94327        -4.08089         9.40087
   H        5.83065        -5.15856         8.82929
   H       10.54620        -3.38207         8.48472
   H       10.26348        -5.01521         9.12420
   H        8.71288        -2.63156         9.78971
   H        9.58054        -3.58398        10.78559
   H        9.97695        -7.17011         8.19060
   H       10.91373        -9.26325         7.23788
   H       12.29487        -9.30439         5.19680
   H       11.96696        -7.45748         3.59947
   H       11.67046        -5.09512         2.46761
   H       11.01685        -2.81387         1.84318
   H       12.63091        -8.55445         8.71110
   H       13.22245        -6.42721         6.59625
   H       15.09190        -8.42200         9.37346
   H       17.04752        -4.57996         9.19899
   H       14.78505        -0.99508         6.51090
   H       12.50282        -4.52469         7.48585
   H       17.41858        -3.84739         7.17934
   H       17.10569        -0.81070         6.98422
   H       22.34309         0.74907         6.55396
   H       22.15941        -2.90390         6.79802
   H       19.71860        -3.75463         7.00727
*
