# ORCA input file
# SCF done       -171.893661853050          0.000223649835
! CAM-B3LYP def2-SVP def2/J RIJCOSX Grid4 TightSCF
%maxcore 5000
%tddft
    Mode sTDDFT
    Ethresh 5.0
    maxcore 5000
end

%pal
  nprocs 6
  end
* xyz 0 1
   C        4.08133        -7.14591         0.62256
   S        3.66409        -5.48686         0.76033
   C        2.01591        -5.80610         0.33756
   C        1.84243        -7.15905         0.11156
   C        3.02102        -7.91818         0.27124
   N        0.57596        -7.78488        -0.14370
   O       -0.39032        -7.34957         0.43679
   O        0.58991        -8.74796        -0.87549
   C        1.04506        -4.77804         0.10203
   N        0.17561        -4.93237        -0.87559
   C       -0.59728        -3.82073        -0.85618
   C       -0.18484        -2.90814         0.21342
   C       -1.03930        -1.71211         0.22332
   O       -1.00167        -0.75723         0.97028
   C       -1.95890        -1.96148        -0.90512
   C       -1.64940        -3.26181        -1.53805
   N       -2.48344        -3.49672        -2.58102
   C       -3.27195        -2.45309        -2.63049
   C       -2.99941        -1.45433        -1.61138
   C        0.88856        -3.50433         0.83668
   C        1.69071        -3.08494         1.93181
   C        1.47557        -1.93217         2.60846
   C        2.25475        -1.44939         3.71441
   C        1.74106        -0.42572         4.48989
   C        2.45929         0.04757         5.60006
   C        2.14809         1.02454         6.54413
   C        0.92056         1.86399         6.57218
   C        0.16581         1.76819         7.91394
   N       -1.25681         1.88247         7.66693
   C        1.26140         3.32752         6.22322
   N        1.68071         3.40075         4.83953
   C        3.26636         1.09507         7.45557
   C        3.48364         1.83598         8.55920
   C        4.75235         1.74379         9.33106
   C        5.74159         0.75154         8.79470
   C        5.50105         0.00218         7.70196
   C        4.27830         0.12441         7.00611
   C        3.76879        -0.51514         5.89193
   C        4.28523        -1.53998         5.06765
   C        3.54412        -1.99512         4.02540
   C        5.44547         3.08091         9.34954
   C        6.35299         3.44154        10.26771
   C        6.97852         4.72677        10.24561
   N        6.50030         5.71665         9.50521
   C        7.27585         6.78441         9.77142
   C        8.33325         6.45073        10.73846
   C        9.16753         7.63095        11.01546
   O       10.12740         7.72003        11.75342
   C        8.54608         8.67023        10.17849
   C        7.39909         8.11206         9.43354
   N        6.82436         9.06141         8.65801
   C        7.52701        10.14963         8.87229
   C        8.61621         9.97605         9.80836
   C        8.15917         5.12332        11.04503
   C        8.93293         4.24860        11.86180
   C       10.02849         4.65244        12.54166
   C       10.86295         3.78664        13.31036
   S       12.23020         4.46152        14.17193
   C       12.69533         2.93494        14.75122
   C       11.84685         1.94835        14.30812
   C       10.80328         2.42801        13.49006
   N       12.00952         0.57348        14.63540
   O       12.94638         0.27071        15.34563
   O       11.19928        -0.20818        14.17957
   H        5.08988        -7.45283         0.81471
   H        3.05127        -8.98380         0.13588
   H       -4.04002        -2.38714        -3.38142
   H       -3.53113        -0.53198        -1.48508
   H        2.48990        -3.75164         2.22422
   H        0.63243        -1.31658         2.32217
   H        0.77766        -0.00331         4.24747
   H        0.23728         1.50221         5.79993
   H        0.55093         2.53019         8.61295
   H        0.34242         0.78405         8.35774
   H       -1.48589         2.79252         7.28357
   H       -1.78882         1.75294         8.51907
   H        2.01673         3.70329         6.93544
   H        0.36221         3.94124         6.32617
   H        2.53725         2.87682         4.69609
   H        1.83827         4.35962         4.55414
   H        2.75937         2.54793         8.92708
   H        4.50822         1.47019        10.36884
   H        6.67417         0.67711         9.33142
   H        6.23724        -0.70551         7.34970
   H        5.26175        -1.95141         5.27661
   H        3.94193        -2.77132         3.39036
   H        5.23110         3.76256         8.53983
   H        6.62636         2.76798        11.06870
   H        7.27267        11.06667         8.36964
   H        9.30377        10.73921        10.11507
   H        8.62598         3.21300        11.90067
   H       10.32231         5.69342        12.50689
   H       13.55342         2.80529        15.38088
   H       10.06398         1.77682        13.06328
*
