# ORCA input file
# SCF done       -203.879843959508          0.000676605872
! CAM-B3LYP def2-SVP def2/J RIJCOSX Grid4 TightSCF
%maxcore 5000
%tddft
    Mode sTDDFT
    Ethresh 5.0
    maxcore 5000
end

%pal
  nprocs 6
  end
* xyz 0 1
   C        8.66868        11.05750       -10.61211
   C        8.14345        11.93289       -11.52199
   F        8.91179        12.92213       -12.00800
   C        6.82042        11.84093       -11.97734
   C        6.02296        10.84121       -11.49505
   C        6.51361         9.90962       -10.55632
   C        7.86262        10.01973       -10.10577
   C        8.37818         9.09676        -9.16587
   C        7.57228         8.09465        -8.69789
   C        6.22790         7.98179        -9.16202
   C        5.70215         8.86553       -10.06215
   C        5.59720         6.80063        -8.55292
   O        4.45578         6.41743        -8.64864
   C        6.70793         6.10755        -7.82352
   C        7.82655         7.02601        -7.73513
   C        8.81172         7.01278        -6.78969
   C        8.84638         6.10290        -5.70853
   N        8.85811         5.48303        -4.74256
   C        9.82558         7.99089        -6.70896
   N       10.66671         8.76489        -6.61199
   C        6.58894         4.78281        -7.54980
   C        7.63426         3.86973        -7.25255
   N        8.91508         4.20932        -7.31876
   C        9.61071         3.08610        -7.06387
   C        8.71550         1.94281        -6.83492
   C        9.49948         0.72640        -6.56118
   O        9.10105        -0.40339        -6.37588
   C       10.88859         1.22117        -6.59475
   C       10.91031         2.66468        -6.92370
   N       12.18233         3.12767        -6.96508
   C       12.93246         2.09322        -6.67558
   C       12.18816         0.87011        -6.42978
   C        7.43713         2.43341        -6.94334
   C        6.17260         1.79296        -6.80325
   C        6.04596         0.45442        -6.66360
   C        4.81460        -0.27398        -6.53523
   C        4.81851        -1.63724        -6.81202
   C        3.66090        -2.40290        -6.81318
   C        2.43352        -1.85658        -6.46512
   C        2.38962        -0.47802        -6.09496
   N        1.24568         0.05256        -5.64699
   C        1.19807         1.32642        -5.38411
   C        2.33775         2.14020        -5.53896
   N        3.48907         1.63074        -5.87825
   C        3.56847         0.32155        -6.16740
   C        1.20636        -2.59684        -6.55560
   N        0.08438        -2.00534        -6.91859
   C       -0.83382        -2.98336        -7.03948
   C       -0.24891        -4.30159        -6.73541
   C       -1.24918        -5.36477        -6.92818
   O       -1.10398        -6.56597        -6.82759
   C       -2.45374        -4.60981        -7.30716
   C       -2.15457        -3.16084        -7.36885
   N       -3.26459        -2.45985        -7.70309
   C       -4.20912        -3.35758        -7.84270
   C       -3.77357        -4.71964        -7.60483
   C        1.05143        -4.06162        -6.36598
   C        2.03818        -4.96603        -5.87805
   C        1.90432        -6.30572        -6.02228
   C        2.88070        -7.25839        -5.63180
   C        2.95165        -8.52345        -6.12458
   C        3.72632        -9.59200        -5.43435
   O        4.55919        -9.44027        -4.57136
   C        3.21107       -10.85657        -5.99459
   C        3.50829       -12.13892        -5.63169
   C        2.87655       -13.21000        -6.30204
   C        1.93592       -12.92970        -7.33629
   C        1.30732       -14.00243        -7.99799
   C        1.61396       -15.28518        -7.63795
   C        2.53612       -15.58149        -6.62458
   C        3.15414       -14.55228        -5.97066
   F        1.01689       -16.31110        -8.26999
   C        1.64893       -11.59209        -7.69445
   C        2.28295       -10.57124        -7.03935
   C        2.22850        -9.12513        -7.22721
   C        1.77861        -8.47832        -8.34770
   C        2.05116        -7.12401        -8.63768
   N        2.32036        -6.05419        -8.95560
   C        1.10729        -9.12370        -9.40769
   N        0.55097        -9.60038       -10.29077
   H        9.69077        11.16016       -10.28280
   H        6.46218        12.55949       -12.69729
   H        5.00099        10.74973       -11.83063
   H        9.40438         9.19553        -8.84935
   H        4.68119         8.76371       -10.39852
   H        5.59666         4.36684        -7.68307
   H       14.00346         2.19216        -6.63916
   H       12.61694        -0.07944        -6.17752
   H        5.28995         2.41362        -6.82210
   H        6.93926        -0.15842        -6.68510
   H        5.75263        -2.10203        -7.09168
   H        3.71030        -3.42386        -7.16023
   H        0.26244         1.71873        -5.01221
   H        2.31363         3.20242        -5.33870
   H       -5.20641        -3.05842        -8.11514
   H       -4.39318        -5.59242        -7.66443
   H        2.92962        -4.55233        -5.42621
   H        1.00205        -6.68785        -6.48248
   H        3.59250        -6.99335        -4.85763
   H        4.21896       -12.33455        -4.84266
   H        0.59433       -13.81117        -8.78466
   H        2.73762       -16.61323        -6.38380
   H        3.86829       -14.75576        -5.18700
   H        0.92748       -11.40651        -8.47437
*
