# ORCA input file
# SCF done       -222.276065665754          0.000633906282
! CAM-B3LYP def2-SVP def2/J RIJCOSX Grid4 TightSCF
%maxcore 5000
%tddft
    Mode sTDDFT
    Ethresh 5.0
    maxcore 5000
end

%pal
  nprocs 6
  end
* xyz 0 1
   C       -0.48322        -2.34335         3.47196
   C        0.41216        -1.41254         2.96865
   C        0.07714        -0.61268         1.88513
   C       -1.16605        -0.71548         1.28082
   C       -2.07419        -1.63776         1.77812
   C       -1.72890        -2.46079         2.87377
   C       -2.84091        -3.35367         3.15826
   C       -2.91707        -4.23271         4.20369
   C       -1.91159        -4.38420         5.18363
   N       -1.13656        -4.56361         6.01103
   C       -3.98731        -5.11168         4.47982
   N       -4.79170        -5.87726         4.77357
   C       -3.84608        -3.12195         2.12300
   C       -3.43608        -1.94699         1.36737
   C       -4.19272        -1.17363         0.52934
   C       -5.56702        -1.29758         0.26447
   N       -6.68641        -1.24271         0.00965
   C       -3.71919        -0.01881        -0.13171
   N       -3.42741         0.93165        -0.70564
   C       -4.92829        -3.92539         1.93674
   C       -5.82094        -3.98965         0.78288
   C       -7.20250        -3.81810         0.99837
   C       -7.52588        -3.41942         2.37494
   O       -6.59857        -3.14843         3.13191
   C       -8.90476        -3.34355         2.84925
   C       -9.95401        -4.13810         2.46705
   S      -11.36644        -3.83522         3.37919
   C      -10.55531        -2.63868         4.31309
   C       -9.26193        -2.47748         3.93544
   C       -8.29933        -1.54387         4.59344
   O       -8.12104        -1.56579         5.78853
   C       -7.61473        -0.59324         3.68682
   C       -6.33258        -0.15698         4.01282
   C       -5.68241         0.75117         3.19918
   C       -6.32062         1.26000         2.07883
   C       -7.60215         0.84024         1.75841
   C       -8.24316        -0.09634         2.54743
   C       -8.08466        -3.87867        -0.07588
   C       -7.61228        -4.16853        -1.33924
   C       -6.24892        -4.37643        -1.55079
   C       -5.35325        -4.27252        -0.48886
   C       -5.74889        -4.70777        -2.88321
   N       -4.45908        -5.05541        -2.99712
   C       -4.05326        -5.42079        -4.18657
   C       -4.96116        -5.48188        -5.25862
   N       -6.20863        -5.06026        -5.07486
   N       -6.59379        -4.66177        -3.90733
   C       -4.57509        -5.98867        -6.57861
   C       -4.65812        -5.14834        -7.69628
   C       -5.02272        -3.72359        -7.45480
   O       -4.50493        -3.11353        -6.53859
   C       -6.01197        -3.11577        -8.34123
   C       -6.74894        -3.74716        -9.31132
   S       -7.79678        -2.68012       -10.13068
   C       -7.25406        -1.34968        -9.17296
   C       -6.32959        -1.72119        -8.25612
   C       -5.68694        -0.80084        -7.26233
   O       -4.87494         0.02507        -7.60732
   C       -6.14401        -0.97569        -5.86774
   C       -7.28254        -1.71319        -5.54786
   C       -7.67257        -1.84278        -4.22918
   C       -6.92978        -1.25149        -3.21945
   C       -5.79355        -0.52070        -3.53109
   C       -5.40531        -0.37604        -4.84814
   C       -4.28047        -5.63335        -8.94224
   C       -3.84212        -6.93501        -9.08343
   C       -3.73371        -7.77282        -7.97087
   C       -4.12280        -7.28896        -6.72096
   C       -3.25814        -9.13235        -8.14277
   C       -2.48918        -9.84165        -7.28790
   C       -2.31274       -11.29866        -7.33361
   C       -2.45961       -12.10588        -8.42342
   C       -2.76055       -11.64941        -9.72643
   N       -2.99399       -11.33837       -10.80584
   C       -2.27957       -13.50712        -8.39837
   N       -2.14798       -14.64566        -8.43950
   C       -1.93124       -11.70893        -5.99128
   C       -1.67952       -10.55605        -5.20996
   C       -1.30508       -10.67187        -3.88041
   C       -1.18350       -11.94081        -3.33601
   C       -1.42434       -13.07360        -4.10261
   C       -1.79865       -12.97187        -5.43353
   C       -1.84773        -9.38348        -6.05017
   C       -1.31258        -8.14682        -5.83250
   C       -0.70586        -7.75515        -4.62000
   N       -0.24670        -7.37458        -3.64002
   C       -1.24431        -7.13800        -6.81957
   N       -1.09776        -6.31873        -7.60844
   H       -0.20358        -2.96224         4.30834
   H        1.38539        -1.31472         3.42479
   H        0.79343         0.09891         1.50378
   H       -1.40618        -0.09369         0.43425
   H       -5.02877        -4.77241         2.60610
   H       -9.95427        -4.93062         1.74515
   H      -11.08156        -2.11210         5.08401
   H       -5.86041        -0.55465         4.89843
   H       -4.68027         1.07421         3.44337
   H       -5.81620         1.97792         1.44867
   H       -8.09606         1.23621         0.88452
   H       -9.24189        -0.42282         2.29423
   H       -9.13021        -3.66139         0.06987
   H       -8.27861        -4.22471        -2.18449
   H       -4.29931        -4.41769        -0.67129
   H       -3.00327        -5.65655        -4.30325
   H       -6.74317        -4.78694        -9.57203
   H       -7.66829        -0.37485        -9.33526
   H       -7.86775        -2.17979        -6.32675
   H       -8.55992        -2.40800        -3.98915
   H       -7.23230        -1.35728        -2.18769
   H       -5.21654        -0.05865        -2.74324
   H       -4.52468         0.18897        -5.11326
   H       -4.30100        -4.97802        -9.79932
   H       -3.53676        -7.30173       -10.05146
   H       -4.10354        -7.93952        -5.85702
   H       -3.61267        -9.62495        -9.03860
   H       -1.12183        -9.79911        -3.27455
   H       -0.89833       -12.04726        -2.30074
   H       -1.32160       -14.05075        -3.65652
   H       -1.98676       -13.86103        -6.01260
*
