# ORCA input file
# SCF done       -225.611657325971          0.000777405652
! CAM-B3LYP def2-SVP def2/J RIJCOSX Grid4 TightSCF
%maxcore 5000
%tddft
    Mode sTDDFT
    Ethresh 5.0
    maxcore 5000
end

%pal
  nprocs 6
  end
* xyz 0 1
   C       -1.68390        -1.74808        10.52412
   O       -2.05104        -1.43145         9.41409
   C       -0.94296        -0.86964        11.45984
   C       -0.68316        -1.55571        12.65693
   C        0.01480        -0.92524        13.67332
   C        0.43891         0.38384        13.47406
   C        0.17017         1.06006        12.28245
   C       -0.52745         0.42985        11.25995
  Br        0.75508         2.84146        12.04198
  Br        1.40225         1.24446        14.85526
   C       -1.26153        -2.89224        12.55673
   C       -1.38597        -3.77793        13.59566
   C       -0.87219        -3.55234        14.89014
   N       -0.46571        -3.42166        15.95518
   C       -2.09326        -4.99503        13.52728
   N       -2.68316        -5.98048        13.54550
   C       -1.79014        -3.05246        11.21455
   C       -2.11372        -4.27267        10.67067
   C       -2.75031        -4.58871         9.45374
   C       -3.39761        -3.74776         8.56491
   C       -3.81511        -4.50914         7.43142
   C       -4.54340        -4.01045         6.34287
   N       -5.13127        -3.61842         5.43833
   C       -3.38156        -5.81251         7.58080
   C       -2.74518        -5.93570         8.84933
   C       -2.28253        -7.13411         9.36954
   C       -1.84129        -8.29976         8.54798
   C       -1.63558        -9.34678         9.41271
   C       -1.91413        -8.89826        10.74327
   C       -2.25836        -7.55713        10.72023
   C       -1.83572        -9.71773        11.87737
   N       -1.74735       -10.41259        12.78674
   C       -1.52939        -8.22893         7.16891
   C       -1.18425        -9.29797         6.39998
   C       -0.87034        -9.27275         5.00659
   C       -0.38464       -10.43575         4.41608
   C       -0.03264       -10.45081         3.06468
   C        0.51617       -11.46446         2.27059
   C        0.88526       -12.82687         2.72391
   C        0.28317       -13.93247         1.82603
   N       -0.00825       -15.09492         2.63167
   C        2.41830       -12.96621         2.83013
   N        2.92411       -12.04579         3.82979
   C        0.69377       -10.90711         0.95187
   C        1.22353       -11.41956        -0.17797
   C        1.33480       -10.61876        -1.42686
   C        0.76595        -9.23903        -1.33390
   C        0.24641        -8.73479        -0.19824
   C        0.20916        -9.52044         0.97697
   C       -0.21854        -9.25262         2.26633
   C       -0.74168        -8.09068         2.87275
   C       -1.04384        -8.10336         4.19805
   C        0.69723       -11.35675        -2.58223
   C        1.34130       -11.61571        -3.72175
   C        0.79139       -12.23246        -4.90142
   C        1.20514       -11.93924        -6.16486
   C        0.32703       -12.59979        -7.10911
   C        0.48009       -12.54463        -8.49961
   N        0.61880       -12.48896        -9.63798
   C       -0.64137       -13.27765        -6.41532
   C       -0.36702       -13.14027        -5.01480
   C       -0.94588       -13.89949        -4.02206
   C       -2.20813       -14.65245        -4.11623
   C       -2.30844       -15.43337        -2.99108
   C       -1.14161       -15.21595        -2.17778
   C       -0.34089       -14.27246        -2.77925
   C       -0.87849       -15.87507        -0.97285
   N       -0.65444       -16.41301         0.01722
   C       -3.21500       -14.47796        -5.10456
   C       -4.18531       -15.39628        -5.36261
   C       -5.21666       -15.15797        -6.29161
   C       -6.28745       -15.95059        -6.59492
   C       -7.05046       -15.67019        -7.83854
   O       -6.98372       -14.67712        -8.52409
   C       -7.86146       -16.88411        -8.07682
   C       -7.68506       -17.78022        -7.00672
   C       -6.81712       -17.15890        -6.00287
   C       -6.72350       -17.57237        -4.69950
   C       -6.09578       -16.86293        -3.65514
   N       -5.63829       -16.33329        -2.74465
   C       -7.33751       -18.74354        -4.20354
   N       -7.80123       -19.68803        -3.74582
   C       -8.31193       -19.01428        -7.03568
   C       -9.11469       -19.32809        -8.12695
   C       -9.29908       -18.42447        -9.17545
   C       -8.66474       -17.18877        -9.15556
  Br      -10.40670       -18.87308       -10.63948
  Br       -9.95886       -21.01897        -8.17364
   H        0.24467        -1.41745        14.60437
   H       -0.74036         0.94098        10.33386
   H       -1.80028        -5.13198        11.24831
   H       -3.57150        -2.69693         8.68065
   H       -3.62004        -6.62402         6.91912
   H       -1.28532       -10.33290         9.17496
   H       -2.59310        -7.00750        11.57958
   H       -1.54298        -7.24385         6.72640
   H       -1.13426       -10.27164         6.86883
   H       -0.26391       -11.32532         5.01636
   H        0.46900       -12.98388         3.72348
   H        0.96607       -14.14271         0.98752
   H       -0.66216       -13.57681         1.40721
   H        0.84460       -15.55324         2.93321
   H       -0.55041       -15.76750         2.09943
   H        2.87782       -12.70209         1.87386
   H        2.65531       -14.02162         3.04539
   H        2.60477       -12.31474         4.75431
   H        3.93725       -12.04445         3.83905
   H        1.59292       -12.43343        -0.22780
   H        2.40784       -10.52374        -1.65923
   H        0.79767        -8.65700        -2.24230
   H       -0.14302        -7.72791        -0.16955
   H       -0.89270        -7.19951         2.28213
   H       -1.44213        -7.21078         4.65385
   H       -0.33971       -11.62470        -2.44242
   H        2.36087       -11.26550        -3.84117
   H        2.01879       -11.29765        -6.44785
   H       -1.38414       -13.92105        -6.84561
   H       -3.13987       -16.05104        -2.70643
   H        0.62708       -13.95565        -2.44268
   H       -3.22630       -13.54072        -5.64620
   H       -4.14433       -16.35081        -4.86184
   H       -5.13513       -14.26229        -6.90033
   H       -8.18913       -19.74044        -6.24850
   H       -8.79420       -16.48463        -9.96275
*
