# ORCA input file
# SCF done       -183.989191218453          0.000391855828
! CAM-B3LYP def2-SVP def2/J RIJCOSX Grid4 TightSCF
%maxcore 5000
%tddft
    Mode sTDDFT
    Ethresh 5.0
    maxcore 5000
end

%pal
  nprocs 6
  end
* xyz 0 1
   C        4.57152        -2.63329         7.21887
   S        3.93282        -4.10484         6.59693
   C        5.26928        -4.29866         5.51104
   C        6.14145        -3.22640         5.64318
   C        5.73976        -2.28904         6.62640
   N        7.25146        -2.95468         4.79547
   O        8.04018        -2.11468         5.17063
   O        7.32104        -3.54154         3.73173
   C        5.35859        -5.47619         4.70478
   C        6.51406        -6.12602         4.43967
   C        6.59994        -7.28943         3.62764
   C        7.43389        -8.37952         3.80270
   N        8.42772        -8.54600         4.78485
   O        8.56459        -7.67244         5.62557
   O        9.09974        -9.56034         4.73387
   C        7.10203        -9.39794         2.83927
   C        6.05071        -8.96814         2.09951
   C        5.71720        -7.62599         2.50169
   C        4.90999        -6.74107         1.81831
   C        5.13949        -5.33068         1.68233
   C        4.36658        -4.86049         0.66522
   C        3.54537        -5.92453         0.16762
   N        2.57972        -5.73655        -0.83361
   O        1.90093        -6.69383        -1.18274
   O        2.47307        -4.61994        -1.30889
   C        3.82819        -7.09351         0.87754
   C        3.10115        -8.29692         0.83091
   C        3.06443        -9.20416         1.85519
   C        2.36818       -10.42241         1.94553
   N        1.60800       -11.10905         1.02700
   C        1.36465       -10.78853        -0.36219
   C        2.59773       -11.02878        -1.22792
   C        1.08592       -12.29758         1.56929
   O        0.38724       -13.07234         0.94779
   C        1.56593       -12.32426         2.93692
   C        2.34906       -11.17466         3.12909
   C        2.83789       -11.17175         4.49066
   O        3.54613       -10.39902         5.09875
   N        2.29723       -12.35155         5.04602
   C        2.52841       -12.70025         6.42740
   C        1.35045       -12.31042         7.31709
   C        1.53172       -13.04276         4.14051
   C        0.84247       -14.24230         4.43024
   C        0.11775       -14.90832         3.49121
   C       -0.61482       -16.09043         3.76005
   O       -0.70062       -16.58815         5.02723
   C       -1.46098       -17.69450         5.00534
   C       -1.87213       -17.92782         3.68393
   C       -1.33182       -16.89608         2.89626
   N       -2.67973       -18.98564         3.20212
   O       -3.08299       -19.80709         4.00426
   O       -2.91532       -19.00293         2.01329
   C       -1.75456       -18.40859         6.19464
   C       -1.32523       -18.02083         7.41946
   C       -1.63222       -18.69991         8.62723
   S       -2.60107       -20.15380         8.66470
   C       -2.49213       -20.26962        10.38673
   C       -1.73121       -19.21401        10.88821
   C       -1.25230       -18.33926         9.89633
   N       -1.42665       -18.97257        12.25963
   O       -1.84367       -19.74130        13.10182
   O       -0.75511       -17.98989        12.50158
   C       -3.13155       -21.33626        11.10244
   C       -3.84486       -22.29803        10.51593
   H        4.03821        -2.10945         7.98632
   H        6.30671        -1.40241         6.84393
   H        4.41645        -5.89650         4.37817
   H        7.43272        -5.82271         4.92445
   H        7.62888       -10.32947         2.75829
   H        5.61062        -9.47682         1.26448
   H        5.90112        -4.78383         2.20372
   H        4.34813        -3.86305         0.26858
   H        2.47549        -8.41972        -0.04012
   H        3.59778        -8.97148         2.76890
   H        1.01064        -9.75922        -0.45183
   H        0.56057       -11.45801        -0.68149
   H        3.44053       -10.43024        -0.89070
   H        2.37458       -10.76280        -2.25682
   H        2.88061       -12.07821        -1.19242
   H        3.41797       -12.14396         6.73551
   H        2.73866       -13.77047         6.50241
   H        1.18675       -11.23698         7.26604
   H        1.56472       -12.57913         8.34757
   H        0.43841       -12.81422         7.00445
   H        0.89530       -14.63614         5.43481
   H        0.06736       -14.54269         2.47459
   H       -1.45457       -16.76835         1.84072
   H       -2.36740       -19.29027         6.07335
   H       -0.71595       -17.13239         7.51898
   H       -0.65203       -17.47807        10.12856
   H       -3.00237       -21.31906        12.17538
   H       -3.98649       -22.33255         9.44720
   H       -4.30742       -23.07847        11.09276
*
