# ORCA input file
# SCF done       -184.856734918894          0.000965199790
! CAM-B3LYP def2-SVP def2/J RIJCOSX Grid4 TightSCF
%maxcore 5000
%tddft
    Mode sTDDFT
    Ethresh 5.0
    maxcore 5000
end

%pal
  nprocs 6
  end
* xyz 0 1
   C        2.47424         2.32224        -6.06093
   C        1.51681         1.53892        -6.58979
   C        0.13844         1.80644        -6.28230
   C       -0.90539         1.03079        -6.76320
   C       -2.23736         1.32343        -6.42975
   N       -3.31968         1.57955        -6.14134
   C       -0.68662        -0.08515        -7.58582
   N       -0.50230        -0.99750        -8.25889
   C       -0.09355         2.93588        -5.44668
   C        0.95197         3.67294        -4.96991
   O        2.23229         3.34975        -5.23982
   C        0.75921         4.86230        -4.17488
   C        1.40068         6.08102        -4.30093
   N        2.37444         6.45045        -5.25424
   O        2.97090         7.49323        -5.06303
   O        2.54619         5.72230        -6.21528
   C        0.82952         7.01706        -3.36947
   C       -0.19079         6.40539        -2.72088
   C       -0.27252         5.03627        -3.16479
   C       -1.05698         4.04022        -2.60089
   C       -0.69581         2.67662        -2.41588
   C       -1.57537         2.09719        -1.54127
   C       -2.58086         3.04486        -1.19776
   N       -3.66418         2.74346        -0.35623
   O       -4.49890         3.61221        -0.14340
   O       -3.70176         1.62909         0.13184
   C       -2.32441         4.24766        -1.87253
   C       -3.19945         5.33336        -1.99997
   C       -3.13160         6.24325        -3.02819
   C       -3.91279         7.37590        -3.28178
   N       -4.94816         7.95701        -2.58552
   C       -5.51714         7.54803        -1.31943
   C       -4.61303         7.91175        -0.14576
   C       -5.42797         9.10307        -3.23317
   O       -6.33910         9.79065        -2.81093
   C       -4.61596         9.22679        -4.43107
   C       -3.70503         8.16851        -4.42692
   C       -2.86334         8.27282        -5.60346
   O       -1.93346         7.60358        -5.99348
   N       -3.35259         9.41643        -6.26744
   C       -2.80254         9.84082        -7.53376
   C       -3.66763         9.38959        -8.70746
   C       -4.39646         9.99733        -5.59379
   C       -5.09290        11.13998        -6.01571
   C       -6.11391        11.66187        -5.26442
   C       -6.88283        12.77837        -5.60042
   S       -6.69254        13.65663        -7.08529
   C       -7.95703        14.77175        -6.69940
   C       -8.51800        14.48611        -5.43904
   C       -7.91137        13.35068        -4.81835
   C       -8.34239        12.91230        -3.55795
   C       -9.35572        13.59337        -2.91993
   C       -9.80481        13.17715        -1.64375
   N      -10.16411        12.83631        -0.61130
   C       -9.96172        14.72839        -3.53381
   C      -10.99886        15.41653        -2.85891
   N      -11.83803        15.99080        -2.33238
   C       -9.55211        15.16635        -4.77296
   C       -8.29724        15.79571        -7.63451
   C       -7.67867        15.92827        -8.84888
   C       -8.05267        16.95286        -9.76133
   C       -7.44215        17.09439       -10.99398
   C       -7.81493        18.10504       -11.89573
   N       -8.12521        18.93360       -12.62749
   C       -6.41617        16.22573       -11.40251
   N       -5.57985        15.50190       -11.71119
   C       -9.10977        17.82383        -9.31011
   C       -9.65777        17.62267        -8.10400
   O       -9.29112        16.64342        -7.25316
   H        3.53010         2.19230        -6.24433
   H        1.77042         0.72156        -7.24420
   H       -1.10551         3.23164        -5.22185
   H        1.17878         8.02486        -3.25527
   H       -0.78753         6.82016        -1.93251
   H        0.19851         2.22297        -2.79616
   H       -1.54331         1.09577        -1.15494
   H       -4.00872         5.36029        -1.28516
   H       -2.39356         6.07952        -3.80370
   H       -5.73044         6.47745        -1.33973
   H       -6.46426         8.08746        -1.22914
   H       -3.63139         7.45511        -0.24662
   H       -5.06355         7.56248         0.77833
   H       -4.49021         8.99073        -0.08781
   H       -1.81545         9.37646        -7.60649
   H       -2.68221        10.92736        -7.53185
   H       -3.74059         8.30503        -8.72075
   H       -3.21781         9.71782        -9.63986
   H       -4.67105         9.80388        -8.63836
   H       -4.81547        11.61212        -6.94782
   H       -6.36159        11.17640        -4.32977
   H       -7.89151        12.05245        -3.08655
   H      -10.02400        16.02558        -5.21898
   H       -6.89386        15.24120        -9.12602
   H       -9.44942        18.62530        -9.94437
   H      -10.45159        18.22692        -7.69154
*
