# ORCA input file
# SCF done       -207.381076555501          0.000753823040
! CAM-B3LYP def2-SVP def2/J RIJCOSX Grid4 TightSCF
%maxcore 5000
%tddft
    Mode sTDDFT
    Ethresh 5.0
    maxcore 5000
end

%pal
  nprocs 6
  end
* xyz 0 1
   C        2.67609         4.53038        -5.51316
   C        3.42720         3.44495        -5.14566
   C        4.39500         2.83863        -5.97488
   N        5.20036         2.30486        -6.59465
   C        3.33542         2.76301        -3.91419
   N        3.31112         2.15125        -2.94242
   C        2.73756         5.20298        -6.80647
   C        1.72906         6.20871        -6.84432
   C        1.54723         7.01364        -7.93178
   C        2.38965         6.85206        -9.05409
   C        3.40307         5.85062        -9.02543
   C        3.56210         5.02772        -7.88622
   C        4.24168         5.70233       -10.14866
   C        4.08953         6.50481       -11.24685
   C        3.09217         7.49087       -11.27327
   C        2.25925         7.66010       -10.20044
   C        1.00075         6.21011        -5.56959
   O        0.05307         6.91505        -5.27371
   C        1.65734         5.20015        -4.72074
   C        1.41994         5.00965        -3.38867
   C        0.49856         5.65062        -2.53406
   S       -0.74217         6.79458        -2.97372
   C       -1.22414         6.98065        -1.32293
   C       -0.44981         6.17675        -0.46792
   C        0.49687         5.42530        -1.16017
   C       -0.61687         6.08497         0.92451
   N       -0.73596         5.99149         2.06238
   C       -2.26470         7.88936        -1.01152
   C       -2.52178         8.38601         0.22817
   C       -3.57388         9.30036         0.47515
   N       -3.77567         9.92361         1.68287
   C       -3.01007         9.73268         2.89223
   C       -3.37662         8.43423         3.60642
   C       -4.88831        10.78962         1.65269
   O       -5.25177        11.45461         2.59733
   C       -5.39224        10.66313         0.30043
   C       -4.56909         9.74896        -0.39536
   C       -5.11326         9.59894        -1.72489
   O       -4.74037         8.95731        -2.68734
   N       -6.26984        10.40526        -1.73191
   C       -7.01201        10.56843        -2.96102
   C       -6.87530        11.97356        -3.53845
   C       -6.43907        11.05565        -0.52983
   C       -7.46476        11.95247        -0.13060
   C       -8.70556        12.09194        -0.65778
   C       -9.67195        13.01169        -0.18431
   S       -9.33018        14.33094         0.91836
   C      -11.01029        13.03624        -0.52191
   C      -11.91845        12.25360        -1.37228
   O      -11.69150        11.30565        -2.08395
   N      -13.16005        12.85841        -1.20995
   C      -14.36661        12.36886        -1.84244
   C      -15.13445        11.43436        -0.91409
   C      -13.14768        13.95387        -0.34982
   O      -14.10551        14.63169        -0.07719
   C      -11.74703        14.06197         0.09446
   C      -10.99685        14.88987         0.90457
   C      -11.43488        16.04177         1.59876
   C      -10.59887        16.93311         2.19066
   C      -11.07170        18.10690         2.82449
   C      -10.26957        19.12031         3.26245
   C      -10.69378        20.35361         3.90213
   C      -11.93469        20.62439         4.41635
   C      -12.27936        21.83772         5.04879
   N      -12.62410        22.80294         5.56582
   C      -13.02750        19.73180         4.42471
   N      -13.95526        19.05818         4.48667
   C       -9.54135        21.24600         3.95501
   C       -8.40431        20.55113         3.45257
   C       -8.79801        19.19383         3.04026
   O       -8.06991        18.33440         2.59098
   C       -7.17429        21.13841         3.37587
   C       -7.02289        22.47749         3.79894
   C       -8.15637        23.18219         4.29821
   C       -9.41642        22.54528         4.37160
   C       -7.99541        24.52084         4.71027
   C       -6.77541        25.13550         4.63220
   C       -5.66035        24.44072         4.13995
   C       -5.78123        23.13967         3.73327
   H        0.77391         7.76738        -7.93279
   H        4.34177         4.28290        -7.89604
   H        5.00808         4.94167       -10.12436
   H        4.73794         6.38408       -12.10159
   H        2.98717         8.11593       -12.14735
   H        1.48926         8.41752       -10.21446
   H        2.04580         4.29126        -2.87232
   H        1.17402         4.73821        -0.68228
   H       -2.86494         8.22059        -1.84975
   H       -1.89511         8.10602         1.06101
   H       -3.25114        10.58450         3.53461
   H       -1.94222         9.75721         2.65810
   H       -4.43985         8.42243         3.83363
   H       -2.82119         8.36269         4.53705
   H       -3.13889         7.56551         2.99721
   H       -8.06178        10.30608        -2.80916
   H       -6.57688         9.84280        -3.65542
   H       -7.28273        12.72016        -2.86116
   H       -7.41079        12.03103        -4.48185
   H       -5.82753        12.20221        -3.71889
   H       -7.20842        12.53384         0.74799
   H       -9.06241        11.45801        -1.45646
   H      -14.06361        11.84310        -2.75088
   H      -14.98076        13.23505        -2.10039
   H      -14.51878        10.57827        -0.64710
   H      -16.03212        11.07827        -1.41117
   H      -15.42221        11.96094        -0.00714
   H      -12.50581        16.20735         1.59065
   H       -9.53024        16.77079         2.15318
   H      -12.14573        18.20176         2.92575
   H       -6.32831        20.58814         2.99141
   H      -10.25535        23.10819         4.74878
   H       -8.85639        25.05166         5.08924
   H       -6.66272        26.16143         4.94918
   H       -4.70549        24.94173         4.08425
   H       -4.92661        22.59923         3.35322
*
