# ORCA input file
# SCF done       -216.903618396181          0.000627073209
! CAM-B3LYP def2-SVP def2/J RIJCOSX Grid4 TightSCF
%maxcore 5000
%tddft
    Mode sTDDFT
    Ethresh 5.0
    maxcore 5000
end

%pal
  nprocs 6
  end
* xyz 0 1
   C        8.30348         8.48143        -2.29697
   C        7.64667         9.68294        -2.32219
   C        8.28136        10.93548        -2.18558
   N        8.73911        11.98212        -2.07825
   C        6.26770         9.81037        -2.55135
   N        5.15379         9.98720        -2.77636
   C        9.74309         8.28947        -2.26945
   C       10.03749         6.96276        -2.70566
   C       11.32190         6.50832        -2.79303
   C       12.38360         7.36980        -2.43552
   C       12.09342         8.69046        -1.98304
   C       10.75531         9.13744        -1.90697
   C       13.16285         9.53342        -1.61740
   C       14.45714         9.09701        -1.69665
   C       14.74192         7.79835        -2.14463
   C       13.72760         6.95373        -2.50662
   C        8.78080         6.24743        -2.97786
   O        8.62025         5.13781        -3.42803
   C        7.70546         7.17675        -2.51445
   C        6.48011         6.69022        -2.22070
   C        5.43673         7.28725        -1.44332
   C        5.54777         7.99691        -0.24874
   N        6.68571         8.25583         0.52985
   O        6.52156         8.87006         1.57126
   O        7.78214         7.87064         0.14150
   C        4.23640         8.37211         0.20860
   C        3.33367         7.97407        -0.71646
   C        4.02033         7.28610        -1.78346
   C        3.40094         6.75567        -2.90813
   C        3.79396         5.64465        -3.69502
   C        2.72322         5.22267        -4.44565
   C        1.62698         6.09397        -4.23222
   N        0.40191         5.95971        -4.89840
   O        0.28517         5.02607        -5.67468
   O       -0.48884         6.76650        -4.66525
   C        2.02930         7.11685        -3.34811
   C        1.35317         8.30852        -3.12131
   C        1.93231         9.49398        -2.69143
   C        1.21288        10.63893        -2.39948
   C        1.74168        11.90439        -2.02056
   C        0.73317        12.85862        -1.73778
   N        0.98072        14.11478        -1.36351
   C        2.23915        14.46660        -1.25749
   C        3.31841        13.60541        -1.51216
   C        3.07812        12.30616        -1.89868
   C       -0.58800        12.34460        -1.89244
   S       -0.53683        10.68726        -2.39153
   C       -1.74818        13.07355        -1.65366
   C       -3.02557        12.58343        -1.79299
   C       -4.19016        13.31339        -1.51576
   C       -4.31109        14.61992        -1.04739
   C       -5.67781        14.93176        -0.87906
   C       -6.43007        13.72783        -1.28762
   C       -5.53610        12.77810        -1.66304
   C       -7.82126        13.56790        -1.30537
   N       -8.95576        13.39472        -1.33827
   C       -6.21745        16.11613        -0.40526
   C       -7.58068        16.42340        -0.17830
   C       -7.67963        17.71096         0.32777
   C       -6.33061        18.25364         0.41954
   C       -5.44937        17.31605        -0.01173
   C       -4.06219        17.48726        -0.07104
   N       -2.92705        17.66121        -0.10757
   C       -8.82528        18.43776         0.71883
   C      -10.11085        17.97920         0.66234
   C      -11.18815        18.78362         1.08879
   C      -12.50393        18.40887         1.07261
   C      -13.64047        19.20107         1.50208
   C      -13.61137        20.47314         2.01693
   C      -14.75785        21.19085         2.41868
   N      -15.64498        21.83286         2.76327
   C      -12.45585        21.25397         2.22605
   N      -11.56965        21.95554         2.43119
   C      -14.84413        18.40368         1.29311
   C      -14.46832        17.14243         0.74826
   C      -13.00579        17.08953         0.59303
   O      -12.35298        16.16253         0.16597
   C      -15.38994        16.18251         0.44344
   C      -16.75881        16.44419         0.67430
   C      -17.14409        17.70224         1.22188
   C      -16.16640        18.67669         1.52715
   C      -18.51249        17.95290         1.45025
   C      -19.45629        17.00818         1.15140
   C      -19.07590        15.77059         0.61100
   C      -17.75584        15.49431         0.37778
   H       11.52759         5.50198        -3.12642
   H       10.55838        10.13437        -1.54442
   H       12.93846        10.53266        -1.27463
   H       15.26922         9.74995        -1.41409
   H       15.76894         7.46997        -2.19994
   H       13.94163         5.95253        -2.85081
   H        6.30363         5.67720        -2.56443
   H        4.05647         8.86851         1.14220
   H        2.26818         8.06323        -0.64217
   H        4.73481         5.13560        -3.64725
   H        2.69136         4.37091        -5.09949
   H        0.30448         8.32421        -3.39901
   H        3.00954         9.56160        -2.61803
   H        2.41117        15.48979        -0.95293
   H        4.32832        13.96724        -1.40384
   H        3.88523        11.62067        -2.10726
   H       -1.58431        14.09255        -1.33038
   H       -3.15198        11.56136        -2.13129
   H       -3.50211        15.28889        -0.83291
   H       -5.76398        11.78869        -2.01452
   H       -8.39652        15.75335        -0.36477
   H       -6.09310        19.23970         0.77440
   H       -8.65104        19.43920         1.09722
   H      -10.32518        16.98841         0.29093
   H      -10.93402        19.77103         1.45393
   H      -15.07653        15.23534         0.03020
   H      -16.49284        19.61805         1.93943
   H      -18.80060        18.90723         1.86616
   H      -20.50189        17.20970         1.32967
   H      -19.83410        15.03726         0.38055
   H      -17.45677        14.54327        -0.03781
*
