# ORCA input file
# SCF done       -177.071486720655          0.000644050633
! CAM-B3LYP def2-SVP def2/J RIJCOSX Grid4 TightSCF
%maxcore 5000
%tddft
    Mode sTDDFT
    Ethresh 5.0
    maxcore 5000
end

%pal
  nprocs 6
  end
* xyz 0 1
   C        4.63777         7.14158         4.11893
   C        3.91290         7.78821         5.08716
   C        4.07267         7.56130         6.46949
   N        4.15421         7.40087         7.60300
   C        2.99135         8.81640         4.81108
   N        2.25592         9.67744         4.62134
   C        5.78199         6.27002         4.36698
   C        6.55956         6.19137         3.17435
   C        7.71987         5.47439         3.11982
   C        8.15679         4.78217         4.27158
   C        7.37538         4.84284         5.46171
   C        6.18110         5.59949         5.49147
   C        7.81917         4.14233         6.60146
   C        8.98006         3.41849         6.57024
   C        9.74907         3.36011         5.39856
   C        9.34648         4.02779         4.27383
   C        5.89696         6.96276         2.11027
   O        6.28101         7.17162         0.98277
   C        4.59369         7.39939         2.69573
   C        3.62551         7.84975         1.85333
   C        2.23093         7.97064         2.05983
   S        1.29080         8.97516         0.98855
   C       -0.19009         8.57630         1.79595
   C        0.05583         7.66248         2.83239
   C        1.40995         7.33826         2.97342
   C       -0.92547         7.09640         3.66182
   N       -1.69931         6.60209         4.35082
   C       -1.39218         9.17204         1.36254
   C       -2.61702         8.99884         1.93716
   C       -3.79584         9.61188         1.48489
   S       -3.82709        10.65545         0.10024
   C       -5.52880        10.96001         0.24310
   C       -6.06457        10.26579         1.34520
   C       -5.08639         9.49927         2.04610
   C       -5.46035         8.74328         3.16649
   C       -6.77848         8.75916         3.57107
   C       -7.18558         8.00498         4.69650
   N       -7.53437         7.39962         5.60471
   C       -7.75038         9.52196         2.87807
   C       -7.40241        10.26159         1.78519
   C       -6.21414        11.79584        -0.65742
   C       -5.64431        12.41417        -1.72686
   C       -6.33549        13.25212        -2.63027
   S       -8.02981        13.63256        -2.45481
   C       -8.01460        14.62237        -3.88304
   C       -6.73492        14.63771        -4.45196
   C       -5.80149        13.87289        -3.74590
   C       -6.42834        15.36047        -5.61869
   N       -6.16762        15.94699        -6.56866
   C       -9.15505        15.29918        -4.36061
   C      -10.36982        15.27710        -3.74485
   C      -11.48190        15.97630        -4.25780
   C      -12.71427        16.01896        -3.66627
   C      -13.88517        16.72741        -4.14816
   C      -14.01147        17.40003        -5.33671
   C      -15.18250        18.07287        -5.74436
   N      -16.09873        18.64266        -6.13693
   C      -13.01734        17.51198        -6.33089
   N      -12.27008        17.64320        -7.19315
   C      -14.93741        16.57955        -3.14817
   C      -14.44869        15.76280        -2.08912
   C      -13.05879        15.36981        -2.37359
   O      -12.35082        14.66557        -1.68267
   C      -15.21888        15.44475        -1.00779
   C      -16.53968        15.93998        -0.93233
   C      -17.03570        16.76046        -1.98595
   C      -16.21449        17.07209        -3.09371
   C      -18.35460        17.25090        -1.90103
   C      -19.14715        16.94601        -0.82815
   C      -18.65772        16.13801         0.20875
   C      -17.38178        15.64579         0.15787
   H        8.29812         5.43529         2.20874
   H        5.60443         5.62084         6.40301
   H        7.22554         4.19281         7.50227
   H        9.31249         2.88697         7.44916
   H       10.66187         2.78353         5.39136
   H        9.93448         3.98684         3.36874
   H        3.97470         8.08765         0.85244
   H        1.76445         6.62567         3.69779
   H       -1.30759         9.82891         0.50545
   H       -2.71063         8.35835         2.80109
   H       -4.73356         8.15595         3.70638
   H       -8.77033         9.50593         3.23109
   H       -8.14587        10.84027         1.26021
   H       -7.27029        11.94373        -0.47442
   H       -4.59041        12.26800        -1.92690
   H       -4.77140        13.77297        -4.03875
   H       -9.02292        15.86789        -5.27407
   H      -10.49744        14.71431        -2.83048
   H      -11.32394        16.51907        -5.18086
   H      -14.82411        14.82239        -0.21852
   H      -16.62036        17.69738        -3.87250
   H      -18.72685        17.87233        -2.70204
   H      -20.15623        17.32593        -0.77261
   H      -19.29676        15.90761         1.04797
   H      -16.99949        15.02335         0.95352
*
