# ORCA input file
# SCF done       -213.779459543054          0.000816653386
! CAM-B3LYP def2-SVP def2/J RIJCOSX Grid4 TightSCF
%maxcore 5000
%tddft
    Mode sTDDFT
    Ethresh 5.0
    maxcore 5000
end

%pal
  nprocs 6
  end
* xyz 0 1
   C       -0.74018         1.83784         0.26543
   C       -1.89594         2.00439        -0.45304
   C       -3.12810         1.41856        -0.10161
   N       -4.15332         0.97859         0.16718
   C       -1.92045         2.70177        -1.67698
   N       -1.91215         3.21256        -2.70541
   C       -0.52822         0.87701         1.33863
   C        0.87267         0.63146         1.45386
   C        1.36828        -0.27474         2.34656
   C        0.47330        -0.97910         3.18334
   C       -0.92576        -0.72470         3.08423
   C       -1.41264         0.21423         2.14642
   C       -1.80606        -1.43186         3.92820
   C       -1.33041        -2.35021         4.82411
   C        0.04650        -2.60177         4.91943
   C        0.92895        -1.93081         4.11684
   C        1.60415         1.48310         0.49774
   O        2.78923         1.51006         0.27076
   C        0.55954         2.36967        -0.09946
   C        0.89703         3.50725        -0.75288
   C        0.03312         4.62058        -0.99057
   S       -1.08846         5.11787         0.24374
   C       -1.68293         6.41620        -0.74005
   C       -1.07798         6.40621        -1.99019
   C       -0.07527         5.42940        -2.10869
   C        0.73726         5.25535        -3.35311
   N        2.18847         5.17529        -3.03096
   O        2.84303         4.37188        -3.64398
   O        2.61010         5.95267        -2.21021
   C        0.56558         6.46556        -4.27901
   C       -0.91645         6.76261        -4.45161
   C       -1.51506         7.26458        -3.13110
   N       -3.00816         7.23710        -3.33289
   O       -3.67018         6.47647        -2.67818
   O       -3.41880         7.97185        -4.19157
   C       -2.63631         7.35614        -0.28665
   C       -3.38206         7.26078         0.84166
   C       -4.35459         8.24840         1.13958
   N       -5.17081         8.23599         2.24618
   C       -5.11705         7.29696         3.33955
   C       -3.94224         7.57899         4.27291
   C       -6.08568         9.30198         2.23868
   O       -6.89806         9.49738         3.12185
   C       -5.80032        10.01082         1.01143
   C       -4.71905         9.34968         0.36902
   C       -4.44904        10.04555        -0.86553
   O       -3.60458         9.87405        -1.72967
   N       -5.40764        11.06733        -0.91008
   C       -5.44465        12.01078        -2.00104
   C       -4.82994        13.35336        -1.61326
   C       -6.21657        11.05878         0.20200
   C       -7.29983        11.96935         0.40235
   C       -8.02537        11.97805         1.53076
   C       -9.16372        12.89885         1.76771
   C       -9.00012        13.79485         3.00430
   O       -8.36402        14.76763         3.23721
   C      -10.36670        12.27175         2.49156
   O      -11.24633        11.55482         2.13869
   C      -10.05325        12.99537         3.79274
   C      -11.10009        13.76720         4.48657
   C      -11.01089        14.14337         5.77695
   C      -11.93136        14.98818         6.53219
   C      -12.93360        15.75827         6.01241
   C      -13.78272        16.57936         6.78626
   N      -14.50255        17.26333         7.36122
   C      -13.23961        15.86456         4.63808
   N      -13.52739        16.01158         3.53693
   C      -11.53709        14.92248         7.93195
   C      -10.36019        14.12554         8.04454
   C       -9.96991        13.63367         6.71718
   O       -9.02867        12.92044         6.44172
   C       -9.75189        13.90310         9.24739
   C      -10.30115        14.47821        10.41428
   C      -11.48272        15.26917        10.31194
   C      -12.09201        15.48025         9.05476
   C      -12.02421        15.83584        11.48413
   C      -11.42713        15.63483        12.69869
   C      -10.26327        14.85730        12.79807
   C       -9.71243        14.29104        11.68056
   H        2.43089        -0.45514         2.41223
   H       -2.47521         0.39454         2.09321
   H       -2.86554        -1.23759         3.84831
   H       -2.01304        -2.88906         5.46389
   H        0.40442        -3.32992         5.63169
   H        1.99001        -2.12066         4.18567
   H        1.94078         3.59878        -1.03445
   H        0.46765         4.32704        -3.86931
   H        1.02273         6.25393        -5.24641
   H        1.06780         7.32916        -3.83518
   H       -1.43026         5.84505        -4.75010
   H       -1.07059         7.51214        -5.22770
   H       -1.26554         8.31943        -2.96605
   H       -2.77214         8.22575        -0.91475
   H       -3.27538         6.40898         1.49846
   H       -5.06407         6.27854         2.94407
   H       -6.05749         7.41510         3.88494
   H       -2.99580         7.50721         3.74126
   H       -3.94050         6.86212         5.08930
   H       -4.03090         8.57952         4.68895
   H       -6.47631        12.13756        -2.34090
   H       -4.86381        11.55785        -2.80950
   H       -5.36574        13.80376        -0.78055
   H       -4.86500        14.03185        -2.46101
   H       -3.79180        13.21627        -1.32086
   H       -7.52880        12.65793        -0.39915
   H       -7.78975        11.29121         2.33248
   H       -9.41884        13.45345         0.86073
   H       -9.51033        12.35892         4.50944
   H      -11.94322        14.06726         3.87912
   H       -8.85945        13.29783         9.30530
   H      -12.98841        16.07823         9.01095
   H      -12.91926        16.43476        11.40238
   H      -11.84811        16.07453        13.59031
   H       -9.80571        14.70941        13.76472
   H       -8.81682        13.69140        11.75090
*
