# ORCA input file
# SCF done       -242.811022432113          0.000448018966
! CAM-B3LYP def2-SVP def2/J RIJCOSX Grid4 TightSCF
%maxcore 5000
%tddft
    Mode sTDDFT
    Ethresh 5.0
    maxcore 5000
end

%pal
  nprocs 6
  end
* xyz 0 1
   C       17.43755        -1.51272        -8.63093
   C       17.33465        -1.96493        -9.91687
   F       18.13352        -2.96319       -10.33357
   C       16.42047        -1.42554       -10.83264
   C       15.60098        -0.40884       -10.42862
   C       15.66562         0.09765        -9.11413
   C       16.59966        -0.46697        -8.19673
   C       16.67656         0.01688        -6.87045
   C       15.84911         1.03461        -6.47763
   C       14.93115         1.60856        -7.40513
   C       14.83067         1.15444        -8.68887
   C       14.20079         2.71048        -6.75183
   O       13.31382         3.39520        -7.20789
   C       14.82781         2.85007        -5.40820
   C       15.68637         1.69945        -5.18863
   C       16.08901         1.20229        -3.97947
   C       15.69108         1.73739        -2.73610
   N       15.34648         2.08857        -1.69910
   C       16.87351         0.03948        -3.83248
   N       17.52502        -0.88998        -3.66322
   C       14.62363         3.96992        -4.67561
   C       15.43136         4.42713        -3.57210
   C       16.79543         4.38428        -3.65594
   S       17.61127         5.08891        -2.32612
   C       16.08606         5.42264        -1.56468
   C       14.98784         5.02802        -2.33808
   C       13.68585         5.14786        -1.80346
   C       12.53758         4.61626        -2.61920
   C       11.90176         5.70255        -3.49065
   C       13.49188         5.73168        -0.55805
   C       12.10194         5.84831         0.01200
   C       11.85659         4.78382         1.08289
   C       14.60335         6.16960         0.20708
   C       14.68740         6.73861         1.53672
   C       15.98259         6.92291         1.92842
   S       17.16020         6.47289         0.76758
   C       15.89603         5.98073        -0.31272
   C       13.61456         7.11972         2.43011
   C       13.67670         7.00082         3.76843
   C       12.64074         7.40924         4.65866
   C       12.63975         7.29379         6.03395
   C       11.46617         7.79445         6.60623
   C       10.56830         8.29193         5.65588
   S       11.16001         8.14635         4.06201
   C        9.41601         8.78306         6.33596
   C        9.59353         8.59394         7.70926
   C       10.88395         7.96781         7.93151
   C       11.44008         7.61958         9.12773
   C       12.70935         7.01157         9.21818
   N       13.74046         6.51585         9.29728
   C       10.78330         7.85089        10.35416
   N       10.25177         8.04291        11.35203
   C        8.50103         9.05663         8.46630
   C        7.52923         9.60845         7.68196
   S        7.92155         9.52033         5.96552
   C        6.22480        10.12103         8.09205
   C        5.22470         9.24035         8.36002
   S        3.72002         9.97213         8.75354
   C        4.43213        11.54029         8.54512
   C        5.79570        11.49165         8.21159
   C        6.52318        12.70082         8.09917
   C        8.01802        12.62947         7.93365
   C        8.69450        12.45935         9.29610
   C        5.87388        13.91992         8.23278
   C        6.63848        15.21482         8.14411
   C        6.77813        15.69153         6.69542
   C        4.47842        13.96143         8.46871
   C        3.58920        15.08779         8.65150
   C        2.32931        14.68779         9.01834
   S        2.11881        12.99542         9.10840
   C        3.78732        12.75861         8.67856
   C        3.85527        16.47987         8.40918
   C        3.26458        17.48960         9.09457
   C        3.47270        18.84281         8.74595
   C        2.88172        19.95887         9.26116
   C        3.50609        21.28329         8.99987
   O        4.37210        21.52529         8.18865
   C        2.88799        22.20663         9.96913
   C        3.18290        23.51603        10.21612
   C        2.47837        24.20197        11.23047
   C        1.48301        23.50811        11.97812
   C        0.79086        24.19366        12.99534
   C        1.08484        25.50617        13.23985
   C        2.05796        26.20654        12.51402
   C        2.74077        25.55565        11.52452
   F        0.42415        26.16317        14.21057
   C        1.19416        22.15253        11.69520
   C        1.87986        21.51262        10.69826
   C        1.77230        20.15365        10.16720
   C        0.69374        19.32756        10.35704
   C        0.45006        18.13336         9.65186
   N        0.16056        17.17194         9.09342
   C       -0.37794        19.62344        11.22595
   N       -1.26912        19.79782        11.92827
   H       18.15013        -1.95414        -7.95182
   H       16.38425        -1.82376       -11.83420
   H       14.88917         0.02295       -11.11594
   H       17.39633        -0.42372        -6.19879
   H       14.12259         1.59785        -9.37283
   H       13.86222         4.64269        -5.05338
   H       17.37135         4.02123        -4.48645
   H       11.78096         4.17242        -1.97268
   H       12.91202         3.81164        -3.25613
   H       11.40439         6.45118        -2.87825
   H       11.16851         5.26489        -4.16409
   H       12.65622         6.21519        -4.08344
   H       11.35623         5.73561        -0.77042
   H       11.95677         6.84322         0.42895
   H       11.97986         3.79074         0.65701
   H       10.84640         4.87187         1.47662
   H       12.55872         4.88922         1.90561
   H       16.31233         7.35307         2.85397
   H       12.72538         7.55597         2.00028
   H       14.53663         6.54611         4.24099
   H       13.45875         6.86589         6.58293
   H        8.42952         9.00028         9.53727
   H        5.29430         8.16985         8.33608
   H        8.40334        13.52194         7.44603
   H        8.27861        11.78450         7.30071
   H        8.47608        13.30600         9.94298
   H        9.77277        12.38372         9.17554
   H        8.33806        11.55846         9.78861
   H        7.62993        15.09908         8.58072
   H        6.12085        15.97158         8.73562
   H        7.40390        15.01038         6.12359
   H        7.23017        16.68054         6.66486
   H        5.80945        15.73230         6.20197
   H        1.47657        15.32679         9.15757
   H        4.49636        16.73331         7.57765
   H        2.64590        17.25954         9.94854
   H        4.25000        19.04435         8.01450
   H        3.94619        24.02290         9.64490
   H        0.03258        23.68710        13.57178
   H        2.24647        27.24147        12.75164
   H        3.49519        26.07371        10.95172
   H        0.44135        21.65297        12.28381
*
