# ORCA input file
# SCF done       -225.855262372343          0.000612902006
! CAM-B3LYP def2-SVP def2/J RIJCOSX Grid4 TightSCF
%maxcore 5000
%tddft
    Mode sTDDFT
    Ethresh 5.0
    maxcore 5000
end

%pal
  nprocs 6
  end
* xyz 0 1
   C        1.54406        -1.70067         5.70759
   C        0.30328        -2.10452         6.11542
   F        0.03734        -2.20138         7.43129
   C       -0.71737        -2.42695         5.21098
   C       -0.46607        -2.33409         3.87030
   C        0.79530        -1.92204         3.39411
   C        1.81994        -1.59777         4.33040
   C        3.09100        -1.17299         3.87680
   C        3.32520        -1.07987         2.53245
   C        2.30191        -1.41902         1.60038
   C        1.06547        -1.82553         2.01033
   C        2.82269        -1.26521         0.22731
   O        2.22710        -1.41388        -0.81654
   C        4.26433        -0.94697         0.39328
   C        4.49960        -0.63953         1.78397
   C        5.49022         0.17485         2.27242
   C        6.42194         0.83083         1.44332
   N        7.16084         1.41804         0.78900
   C        5.61550         0.52849         3.62959
   N        5.76549         0.83213         4.72660
   C        5.10505        -1.06031        -0.67622
   C        6.49992        -1.24691        -0.71088
   S        7.42051        -1.87443         0.65187
   C        8.84749        -1.85569        -0.29046
   C        8.62956        -1.38577        -1.59249
   C        7.30745        -1.07028        -1.83236
   C        9.91933        -1.36814        -2.37706
   C        9.84236        -2.26805        -3.61316
   C       10.29984         0.06343        -2.76730
   C       10.87290        -1.92540        -1.34753
   C       10.20851        -2.19269        -0.14533
   S       11.25611        -2.83863         1.04897
   C       12.60369        -2.76128        -0.07101
   C       12.21886        -2.24261        -1.30314
   C       13.87316        -3.23468         0.34313
   C       14.97423        -3.24625        -0.45093
   C       16.24315        -3.76602        -0.09764
   C       16.67864        -4.35758         1.07835
   C       18.00211        -4.78584         0.99290
   C       18.58789        -4.51734        -0.25774
   S       17.51084        -3.73214        -1.32020
   C       19.90948        -5.02160        -0.25849
   C       20.16812        -5.61121         0.99112
   C       18.98182        -5.47415         1.82201
   C       18.81898        -5.90909         3.10468
   C       19.84853        -6.57248         3.80418
   N       20.68736        -7.11298         4.36925
   C       17.61144        -5.72775         3.81073
   N       16.62938        -5.58338         4.38482
   C       21.44164        -6.17483         1.07300
   C       22.15372        -6.02230        -0.10484
   S       21.23393        -5.15301        -1.32640
   C       23.44999        -6.50686        -0.41180
   S       24.14547        -6.20069        -1.99066
   C       25.53273        -7.11348        -1.56126
   C       25.46258        -7.61885        -0.26087
   C       24.28709        -7.27189         0.38946
   C       26.69570        -8.43086         0.06200
   C       27.50063        -7.79562         1.19999
   C       26.33952        -9.88154         0.39674
   C       27.44251        -8.33293        -1.24840
   C       26.73396        -7.53888        -2.16151
   S       27.54030        -7.37487        -3.65976
   C       28.83811        -8.41408        -3.08334
   C       28.62291        -8.82664        -1.76842
   C       29.91558        -8.70724        -3.93881
   C       30.87105        -9.64953        -3.68134
   C       31.96428        -9.85133        -4.53561
   C       33.00774       -10.73147        -4.41575
   C       33.85623       -10.95871        -5.61433
   O       33.86017       -10.29848        -6.63070
   C       34.64128       -12.17078        -5.32179
   C       35.49018       -12.86052        -6.13730
   C       36.10204       -14.03941        -5.65587
   C       35.81004       -14.48265        -4.33372
   C       36.41209       -15.66509        -3.86144
   C       37.26260       -16.35736        -4.67770
   C       37.56375       -15.93680        -5.98002
   C       36.98685       -14.79174        -6.45477
   F       37.83910       -17.48772        -4.22786
   C       34.92967       -13.74205        -3.50987
   C       34.35942       -12.59503        -3.99223
   C       33.44185       -11.63226        -3.37503
   C       33.21643       -11.55495        -2.02196
   C       32.50577       -10.55156        -1.33577
   N       31.96125        -9.78266        -0.67726
   C       33.75034       -12.46473        -1.08434
   N       34.13756       -13.16743        -0.26264
   H        2.30495        -1.45692         6.43248
   H       -1.67668        -2.74029         5.59130
   H       -1.23640        -2.57702         3.15385
   H        3.85208        -0.94048         4.60499
   H        0.30071        -2.06994         1.28836
   H        4.60994        -1.09552        -1.64286
   H        6.91513        -0.69577        -2.76057
   H        9.09432        -1.88902        -4.30462
   H        9.57194        -3.28218        -3.32756
   H       10.80511        -2.29273        -4.11740
   H        9.56630         0.46750        -3.46003
   H       11.27732         0.07405        -3.24311
   H       10.33097         0.69865        -1.88536
   H       12.90141        -2.11340        -2.12240
   H       13.93423        -3.62023         1.35071
   H       14.90380        -2.85106        -1.45461
   H       16.05369        -4.47202         1.94449
   H       21.83534        -6.67697         1.93685
   H       24.02873        -7.55978         1.39159
   H       26.92445        -7.81670         2.12152
   H       27.74269        -6.76231         0.96225
   H       28.42685        -8.34407         1.34955
   H       25.74122        -9.91930         1.30344
   H       27.24686       -10.45966         0.55067
   H       25.77177       -10.33057        -0.41529
   H       29.33204        -9.42838        -1.22972
   H       29.97850        -8.13653        -4.85688
   H       30.76925       -10.26558        -2.80414
   H       31.97495        -9.27994        -5.45941
   H       35.68959       -12.51290        -7.13989
   H       36.20596       -16.01718        -2.86270
   H       38.24216       -16.52433        -6.57808
   H       37.20258       -14.44719        -7.45500
   H       34.72337       -14.11318        -2.51901
*
