# ORCA input file
# SCF done       -170.091071774510          0.000681050766
! CAM-B3LYP def2-SVP def2/J RIJCOSX Grid4 TightSCF
%maxcore 5000
%tddft
    Mode sTDDFT
    Ethresh 5.0
    maxcore 5000
end

%pal
  nprocs 6
  end
* xyz 0 1
   C       -3.07575         0.57631         4.53252
   C       -2.92120        -0.72157         4.23557
   C       -3.28330        -1.20274         2.92496
   C       -3.14870        -2.52850         2.56567
   C       -3.50663        -2.99288         1.28828
   N       -3.80321        -3.36829         0.24423
   C       -2.64759        -3.48927         3.45990
   N       -2.23833        -4.26917         4.19721
   C       -3.79111        -0.21338         2.02988
   C       -3.91214         1.08506         2.42520
   O       -3.55774         1.49472         3.67582
   C       -4.41269         2.15243         1.61431
   C       -4.85870         2.13172         0.30826
   C       -5.27562         3.39458        -0.11402
   C       -5.14125         4.37960         0.88694
   S       -4.50342         3.75238         2.33784
   C       -5.59433         5.61563         0.36939
   C       -6.01526         5.41437        -0.95619
   C       -5.82439         4.01328        -1.30494
   C       -6.10603         3.42547        -2.50490
   C       -6.63478         4.15946        -3.58615
   N       -7.06490         4.76465        -4.46093
   C       -5.88625         2.05148        -2.73815
   N       -5.71173         0.93434        -2.92655
   C       -6.49120         6.57125        -1.56202
   C       -6.44297         7.66603        -0.71077
   S       -5.78594         7.24370         0.86326
   C       -6.85044         9.00056        -0.99803
   C       -7.48213         9.33462        -2.17465
   C       -7.89797        10.61567        -2.52365
   C       -7.79925        11.72547        -1.56532
   C       -7.20745        11.62823        -0.35513
   S       -6.48912        10.18994         0.24496
   C       -8.45166        12.82402        -2.19000
   C       -8.91999        12.43753        -3.44715
   C       -9.57665        13.49225        -4.11855
   C       -9.59221        14.62513        -3.36893
   S       -8.81258        14.46407        -1.83057
   C       -8.55513        11.06667        -3.68790
   C       -8.83435        10.38470        -4.89662
   C       -8.20273         9.26936        -5.35301
   C       -8.53140         8.57537        -6.54170
   C       -9.55682         8.81022        -7.45026
   C       -9.55325         7.88732        -8.48959
   C       -8.52143         6.93541        -8.38031
   S       -7.55928         7.18222        -6.99354
   C       -8.60928         6.05068        -9.48129
   C       -9.69941         6.43756       -10.28634
   C      -10.32352         7.60532        -9.69420
   C      -11.39573         8.30469       -10.16717
   C      -12.06418         7.94284       -11.35536
   N      -12.60925         7.65233       -12.32139
   C      -11.90040         9.44042        -9.50086
   N      -12.30730        10.36688        -8.96100
   C       -9.86372         5.61722       -11.40216
   C       -8.90753         4.62195       -11.45289
   S       -7.78859         4.69057       -10.10071
   C       -8.77079         3.61550       -12.46355
   C       -7.75492         2.70825       -12.51107
   C       -7.67997         1.74470       -13.56020
   C       -6.65163         0.82812       -13.65112
   C       -6.58822        -0.11404       -14.69082
   N       -6.54193        -0.88141       -15.54450
   C       -5.60617         0.79859       -12.71300
   N       -4.75457         0.78889       -11.94207
   C       -8.75196         1.80399       -14.52241
   C       -9.70989         2.73325       -14.39171
   O       -9.75604         3.64387       -13.40246
   H       -2.82943         1.01366         5.48820
   H       -2.52990        -1.41084         4.96521
   H       -4.08116        -0.50384         1.03362
   H       -4.87927         1.24647        -0.30011
   H       -6.84746         6.61479        -2.57376
   H       -7.70476         8.52718        -2.85336
   H       -7.13554        12.46126         0.32607
   H      -10.01602        13.42302        -5.09687
   H      -10.02118        15.57459        -3.62310
   H       -9.59717        10.83736        -5.51603
   H       -7.35568         8.87402        -4.81216
   H      -10.26356         9.61242        -7.34738
   H      -10.62863         5.72615       -12.14921
   H       -6.99079         2.72008       -11.74910
   H       -8.77194         1.10313       -15.34033
   H      -10.54176         2.84376       -15.07092
*
