# ORCA input file
# SCF done       -226.505638009946          0.000637818239
! CAM-B3LYP def2-SVP def2/J RIJCOSX Grid4 TightSCF
%maxcore 5000
%tddft
    Mode sTDDFT
    Ethresh 5.0
    maxcore 5000
end

%pal
  nprocs 6
  end
* xyz 0 1
   C        2.35576        -2.25857         1.36871
   C        1.47758        -2.10513         0.34081
   C        1.12824        -0.75194         0.16138
   C        1.76686         0.09072         1.07860
   S        2.78314        -0.76814         2.14727
   C        1.35845         1.43161         0.82628
   C        0.46353         1.42691        -0.25068
   C        0.28837         0.05183        -0.70493
   C       -0.50292        -0.37950        -1.73037
   C       -1.27813         0.50693        -2.50571
   N       -1.91484         1.22210        -3.13756
   C       -0.59880        -1.74094        -2.08473
   N       -0.68100        -2.84631        -2.37942
   C       -0.00052         2.70203        -0.58120
   C        0.53743         3.67445         0.23991
   S        1.63140         3.00293         1.43567
   C        0.29305         5.07577         0.19824
   C       -0.51158         5.76784        -0.65997
   C       -0.53151         7.16281        -0.42558
   C        0.29499         7.55223         0.66031
   S        1.07237         6.13864         1.35091
   C        0.40422         8.87843         1.04240
   O        1.14138         9.42032         2.04835
   C        1.94949         8.59733         2.85462
   C       -0.34742         9.80987         0.29654
   C       -1.17163         9.42324        -0.78926
   C       -1.28104         8.09498        -1.17265
   O       -2.01594         7.55444        -2.17634
   C       -2.80584         8.37671        -3.00213
   S       -1.94322        10.83708        -1.47821
   C       -1.17103        11.90475        -0.32395
   C       -0.37173        11.20595         0.53011
   C       -1.42333        13.32465        -0.37290
   C       -2.18111        13.87681        -1.41174
   C       -2.42623        15.23241        -1.50549
   C       -1.90398        16.08673        -0.54041
   C       -1.17215        15.51727         0.52865
   C       -0.91852        14.17081         0.62610
   N       -0.80859        16.51141         1.41352
   C       -0.03596        16.32417         2.60984
   C       -1.30341        17.72684         1.01605
   O       -1.09457        18.75607         1.62431
   C       -2.01753        17.50385        -0.28469
   C       -2.56427        18.49982        -1.04877
   C       -2.84293        18.38902        -2.51885
   O       -2.68029        17.45389        -3.27522
   N       -3.26877        19.62307        -2.93857
   C       -3.61405        19.92015        -4.30083
   C       -3.34537        20.50517        -1.88050
   C       -2.90977        19.85841        -0.69959
   C       -2.99235        20.55693         0.49999
   C       -3.44981        21.85977         0.49303
   C       -3.83392        22.50840        -0.68550
   C       -3.79088        21.80467        -1.89817
   C       -4.27930        23.88103        -0.65526
   C       -4.44858        24.74724        -1.69265
   C       -4.89660        26.03481        -1.30934
   C       -5.08718        26.15215         0.08991
   S       -4.67744        24.63904         0.87212
   C       -5.53024        27.33649         0.65933
   O       -5.76976        27.61871         1.96424
   C       -5.60013        26.62735         2.94934
   C       -5.77006        28.40693        -0.22670
   C       -5.57062        28.29043        -1.62683
   C       -5.13333        27.10610        -2.19534
   O       -4.89687        26.82225        -3.50397
   C       -5.06677        27.81724        -4.48457
   S       -5.96094        29.81174        -2.41002
   C       -6.37685        30.55807        -0.88163
   C       -6.22328        29.68989         0.16021
   C       -6.81300        31.91206        -0.84042
   C       -7.21040        32.63273         0.26951
   C       -7.57639        33.93907        -0.06189
   C       -7.45493        34.21186        -1.42993
   S       -6.89257        32.86276        -2.31256
   C       -7.85056        35.56113        -1.65697
   C       -8.22030        36.13128        -0.43324
   C       -8.06409        35.13784         0.61101
   C       -8.32032        35.28439         1.94390
   C       -8.79601        36.49452         2.48945
   N       -9.18224        37.47587         2.94039
   C       -8.12938        34.23522         2.86616
   N       -7.97566        33.38632         3.62216
   C       -8.62811        37.47338        -0.56662
   C       -8.56076        37.88585        -1.86147
   S       -8.00177        36.65964        -2.95428
   H        2.79239        -3.16716         1.73182
   H        1.10436        -2.91979        -0.25241
   H       -0.69212         2.91957        -1.37345
   H       -1.08411         5.31448        -1.44678
   H        2.43144         9.27187         3.56127
   H        2.71572         8.08282         2.26883
   H        1.35716         7.86226         3.40592
   H       -3.27943         7.69886        -3.71103
   H       -2.19921         9.10390        -3.54793
   H       -3.57777         8.90025        -2.43220
   H        0.21119        11.64601         1.31694
   H       -2.58020        13.21765        -2.16870
   H       -2.99967        15.61699        -2.32990
   H       -0.35715        13.77280         1.45496
   H       -0.55308        15.65762         3.30367
   H        0.08954        17.30282         3.07208
   H        0.94433        15.90700         2.37102
   H       -3.43436        19.01861        -4.88569
   H       -2.99333        20.73199        -4.68497
   H       -4.66652        20.20157        -4.38001
   H       -2.68785        20.10174         1.42541
   H       -3.50327        22.40354         1.42475
   H       -4.11886        22.26682        -2.81464
   H       -4.24797        24.51050        -2.72053
   H       -5.87720        27.10652         3.88739
   H       -4.56233        26.28949         3.00936
   H       -6.25375        25.76864         2.77547
   H       -4.79638        27.34127        -5.42637
   H       -4.40859        28.67281        -4.31213
   H       -6.10348        28.15993        -4.53931
   H       -6.42035        29.93858         1.18572
   H       -7.23112        32.22012         1.26076
   H       -8.95281        38.10016         0.24368
   H       -8.80718        38.84974        -2.25926
*
