# ORCA input file
# SCF done       -242.331794371159          0.000564181554
! CAM-B3LYP def2-SVP def2/J RIJCOSX Grid4 TightSCF
%maxcore 5000
%tddft
    Mode sTDDFT
    Ethresh 5.0
    maxcore 5000
end

%pal
  nprocs 6
  end
* xyz 0 1
   C        0.33485         1.46536        -1.13749
   C       -1.02529         1.56728        -1.00343
   C       -1.81794         0.64372        -0.29155
   N       -2.50993        -0.07592         0.27427
   C       -1.78944         2.57172        -1.62476
   N       -2.42553         3.38408        -2.12878
   C        1.13848         0.32535        -0.70769
   C        2.37551         0.34700        -1.41590
   C        3.32056        -0.62259        -1.24046
   C        3.07211        -1.66818        -0.32309
   C        1.84497        -1.68551         0.40127
   C        0.88034        -0.67269         0.19227
   C        1.61463        -2.72864         1.32085
   C        2.54856        -3.70970         1.51537
   C        3.75556        -3.69273         0.80064
   C        4.01142        -2.69412        -0.09943
   C        2.42065         1.53886        -2.27730
   O        3.27804         1.86639        -3.06435
   C        1.18909         2.31738        -1.93604
   C        1.12872         3.61627        -2.33259
   C        0.31544         4.68388        -1.88175
   C       -0.36338         4.85500        -0.68444
   F       -0.32933         3.95593         0.30407
   C       -1.01126         6.08650        -0.57473
   C       -0.83204         6.88315        -1.71262
   S        0.15743         6.11216        -2.88835
   C       -1.49082         8.11131        -1.59692
   C       -2.16102         8.23346        -0.37519
   S       -1.99448         6.83748         0.64783
   C       -2.80534         9.47036        -0.24536
   F       -3.50625         9.81970         0.84014
   C       -2.63966        10.29603        -1.34066
   S       -1.66862         9.52236        -2.57195
   C       -3.12144        11.62465        -1.52939
   C       -3.87196        12.38080        -0.67344
   C       -4.13805        13.68360        -1.15827
   C       -4.88836        14.70573        -0.53966
   C       -5.47757        14.56368         0.77573
   C       -6.67637        15.05612         1.20912
   C       -6.91817        14.78368         2.57228
   C       -5.91632        14.10076         3.19909
   S       -4.63758        13.77133         2.08206
   C       -5.83351        13.65506         4.61242
  Cl       -8.36393        15.27987         3.36415
   C       -5.01815        15.89458        -1.25204
   C       -4.44354        16.10588        -2.52955
   C       -3.72395        15.07209        -3.16278
   C       -3.57410        13.89345        -2.44260
   S       -2.72037        12.48369        -3.00018
   C       -3.18534        15.24370        -4.49606
   C       -3.78493        15.83661        -5.57049
   C       -2.97142        15.82237        -6.72384
   C       -1.75287        15.23328        -6.54722
   S       -1.59706        14.66555        -4.91940
   C       -0.65433        15.05489        -7.52919
  Cl       -3.49093        16.49489        -8.22138
   C       -4.62797        17.43258        -2.98528
   C       -5.33065        18.21485        -2.11224
   S       -5.81388        17.33418        -0.67738
   C       -5.67427        19.59154        -2.25187
   C       -5.35746        20.44437        -3.29327
   F       -4.65965        20.06250        -4.37029
   C       -5.83418        21.74706        -3.11339
   C       -6.53531        21.89629        -1.91139
   S       -6.59234        20.42146        -1.01722
   C       -7.00950        23.19964        -1.72696
   C       -6.65269        24.02556        -2.80603
   S       -5.73924        23.21028        -4.04779
   C       -7.11643        25.32028        -2.63171
   F       -6.91541        26.30709        -3.50655
   C       -7.83275        25.51665        -1.44593
   S       -7.92888        24.02459        -0.52197
   C       -8.36150        26.77744        -1.11224
   C       -9.12063        27.14456        -0.03605
   C       -9.64845        28.47076         0.23637
   C       -9.36924        29.62945        -0.43852
   C       -9.91934        30.88646        -0.10796
   N      -10.33195        31.93638         0.10417
   C       -8.48561        29.75777        -1.53163
   N       -7.77598        29.95583        -2.41215
   C      -10.51817        28.36249         1.40389
   C      -10.48094        27.01886         1.87691
   C       -9.59666        26.22951         1.01117
   O       -9.32145        25.04784         1.13507
   C      -11.19545        26.61372         2.96747
   C      -12.00305        27.55259         3.64697
   C      -12.05163        28.89728         3.17830
   C      -11.29603        29.28738         2.04824
   C      -12.86482        29.82467         3.86044
   C      -13.59543        29.44414         4.95329
   C      -13.54609        28.12027         5.41432
   C      -12.76648        27.19447         4.77529
   H        4.24798        -0.59143        -1.79278
   H       -0.03581        -0.70358         0.76105
   H        0.68266        -2.73923         1.86664
   H        2.36206        -4.50501         2.22138
   H        4.48164        -4.47434         0.96703
   H        4.93904        -2.67549        -0.65264
   H        1.87284         3.89315        -3.07471
   H       -4.22651        12.01285         0.27000
   H       -7.38655        15.56050         0.58083
   H       -5.02722        14.17264         5.13213
   H       -5.63378        12.58570         4.66532
   H       -6.77150        13.86807         5.11897
   H       -4.78370        16.23199        -5.56146
   H       -0.96840        15.42606        -8.50145
   H       -0.38760        14.00265        -7.61841
   H        0.23466        15.60045        -7.21362
   H       -4.22238        17.79746        -3.90929
   H       -8.12584        27.54209        -1.84433
   H      -11.14678        25.58919         3.30516
   H      -11.35778        30.31231         1.71921
   H      -12.89908        30.84309         3.50225
   H      -14.21567        30.16202         5.46862
   H      -14.12910        27.83735         6.27790
   H      -12.72466        26.17343         5.12528
*
