# ORCA input file
# SCF done       -266.157041332263          0.000989274375
! CAM-B3LYP def2-SVP def2/J RIJCOSX Grid4 TightSCF
%maxcore 5000
%tddft
    Mode sTDDFT
    Ethresh 5.0
    maxcore 5000
end

%pal
  nprocs 6
  end
* xyz 0 1
   C        1.06379         0.78588        -1.88346
   C        2.18347         0.86265        -2.67206
   C        2.91458        -0.25955        -3.11288
   N        3.54957        -1.13256        -3.50416
   C        2.78257         2.06056        -3.11377
   N        3.33544         2.99518        -3.48838
   C        0.50406        -0.43643        -1.32144
   C       -0.53744        -0.07961        -0.41910
   C       -1.25060        -1.01855         0.26822
   C       -0.94934        -2.38607         0.07853
   C        0.08738        -2.75212        -0.82765
   C        0.80961        -1.75595        -1.52443
   C        0.37523        -4.11952        -1.01326
   C       -0.32547        -5.08071        -0.33680
   C       -1.34588        -4.71919         0.55526
   C       -1.65058        -3.40056         0.75910
   C       -0.68653         1.38615        -0.38721
   O       -1.49109         2.01058         0.27128
   C        0.28800         1.90447        -1.38075
   C        0.32304         3.16588        -1.90889
   C       -0.30017         4.34274        -1.44900
   C       -0.80487         4.69596        -0.20425
   C       -1.29213         5.99616        -0.18645
   C       -1.17290         6.65139        -1.43313
   S       -0.42181         5.67856        -2.60518
   C       -1.73602         7.94428        -1.31863
   C       -2.19817         8.11761        -0.00187
   C       -1.91941         6.90667         0.75662
   C       -2.17445         6.69281         2.07913
   C       -2.79064         7.67292         2.88576
   N       -3.28483         8.46701         3.54961
   C       -1.82192         5.49994         2.74706
   N       -1.52873         4.55095         3.31903
   C       -2.78170         9.36558         0.20851
   C       -2.77502        10.13898        -0.93966
   S       -2.02722         9.31724        -2.29406
   C       -3.30304        11.45027        -1.09764
   C       -3.88407        12.23261        -0.13626
   C       -4.32067        13.48914        -0.61470
   C       -4.99945        14.50579         0.09245
   C       -5.28057        14.42008         1.50993
   C       -6.38671        14.87278         2.17230
   C       -6.30919        14.67447         3.56735
   C       -5.15350        14.08703         3.99331
   S       -4.12741        13.75790         2.63959
   C       -4.73947        13.72976         5.37283
  Cl       -7.57987        15.14306         4.63080
   C       -5.38147        15.62129        -0.64690
   C       -5.12289        15.77101        -2.03095
   C       -4.47193        14.74286        -2.74265
   C       -4.07004        13.63902        -2.00163
   S       -3.27014        12.24045        -2.65881
   C       -4.29304        14.79654        -4.17743
   C       -3.22616        14.38535        -4.92787
   C       -3.45438        14.54722        -6.30933
   C       -4.68229        15.05870        -6.62533
   S       -5.59011        15.35824        -5.19322
   C       -5.25788        15.35578        -7.96068
  Cl       -2.27598        14.13789        -7.49691
   C       -5.53286        17.03537        -2.51988
   C       -6.12102        17.82659        -1.57484
   S       -6.17517        17.03295        -0.00691
   C       -6.59130        19.17279        -1.67889
   S       -6.51864        20.15252        -0.25171
   C       -6.98308        21.58237        -1.09185
   C       -7.16584        21.31936        -2.45200
   C       -7.00993        19.92663        -2.78117
   C       -7.26803        19.50462        -4.11942
   C       -7.48316        18.10458        -4.56231
   O       -7.17616        17.70998        -5.65682
   O       -8.14855        17.30313        -3.70987
   C       -7.45072        20.46133        -5.08987
   C       -7.46389        21.82649        -4.79264
   C       -7.36150        22.26740        -3.49601
   O       -7.40685        23.58126        -3.18859
   C       -7.13543        22.78724        -0.33897
   C       -8.03142        23.80104        -0.50078
   C       -7.92362        24.82004         0.47786
   C       -8.68219        26.00143         0.58757
   C       -9.77325        26.31830        -0.31201
   C      -10.10286        27.53758        -0.83076
   C      -11.26663        27.49699        -1.62874
   C      -11.84602        26.26559        -1.72289
   S      -10.93040        25.11277        -0.81203
   C      -13.07590        25.86872        -2.45421
  Cl      -11.89074        28.89650        -2.41492
   C       -8.33589        26.86720         1.62300
   C       -7.31073        26.59081         2.55743
   C       -6.58003        25.39253         2.47081
   C       -6.89226        24.54950         1.41051
   S       -6.11916        23.02899         1.07229
   C       -5.56762        25.05714         3.45367
   C       -5.63771        25.19383         4.80953
   C       -4.45996        24.76531         5.46074
   C       -3.48574        24.30845         4.62248
   S       -4.02818        24.39334         2.98012
   C       -2.13491        23.79127         4.95707
  Cl       -4.28612        24.82379         7.17424
   C       -7.15838        27.64993         3.50037
   C       -8.03915        28.65265         3.31144
   S       -9.10544        28.39164         1.97587
   H       -2.03439        -0.72105         0.94891
   H        1.58339        -2.06484        -2.20923
   H        1.16274        -4.39276        -1.70027
   H       -0.09699        -6.12548        -0.48557
   H       -1.88942        -5.49064         1.08004
   H       -2.43515        -3.11602         1.44491
   H        0.87633         3.29517        -2.83242
   H       -0.80863         4.02488         0.63406
   H       -3.19750         9.70090         1.14004
   H       -4.00603        11.90709         0.87896
   H       -7.24901        15.29566         1.69173
   H       -5.52569        14.00142         6.07272
   H       -3.82415        14.25340         5.64747
   H       -4.54889        12.65983         5.45031
   H       -2.29952        14.02278        -4.52280
   H       -4.46587        15.61202        -8.66154
   H       -5.96102        16.18184        -7.88098
   H       -5.79114        14.48744        -8.35040
   H       -5.34630        17.36572        -3.52462
   H       -8.34647        17.74091        -2.87122
   H       -7.61183        20.13486        -6.10554
   H       -7.58748        22.54309        -5.59235
   H       -7.48129        24.10498        -3.99751
   H       -8.75429        23.81482        -1.29210
   H       -9.52619        28.43156        -0.68480
   H      -13.36908        26.66352        -3.13585
   H      -13.89503        25.68923        -1.75715
   H      -12.90987        24.95316        -3.01911
   H       -6.50636        25.54494         5.33519
   H       -1.97365        23.85346         6.03036
   H       -1.36517        24.37034         4.44826
   H       -2.03476        22.75246         4.64381
   H       -6.40499        27.65611         4.26589
   H       -8.13576        29.56091         3.87338
*
