# ORCA input file
# SCF done       -201.672988572375          0.000973734036
! CAM-B3LYP def2-SVP def2/J RIJCOSX Grid4 TightSCF
%maxcore 5000
%tddft
    Mode sTDDFT
    Ethresh 5.0
    maxcore 5000
end

%pal
  nprocs 6
  end
* xyz 0 1
   C        0.39374         5.02624        -0.69598
   C       -0.40036         5.10169         0.41609
   C       -0.20699         4.21538         1.48624
   C        0.77705         3.26616         1.43013
   C        1.61208         3.15926         0.29956
   C        2.62540         2.17533         0.23372
   C        3.41712         2.10135        -0.88014
   C        3.23172         3.02090        -1.95397
   C        2.25527         3.97460        -1.92030
   C        1.41665         4.06167        -0.78625
   C        4.24243         2.76446        -2.99270
   O        4.36660         3.29811        -4.07048
   C        5.15071         1.73066        -2.40757
   C        4.50512         1.19306        -1.22707
   C        4.69105        -0.05147        -0.68405
   C        5.61165        -0.99430        -1.17996
   N        6.33681        -1.79588        -1.56754
   C        3.91387        -0.56741         0.37470
   N        3.30482        -1.03682         1.22617
   C        6.37500         1.55129        -2.97135
   C        7.53111         0.95646        -2.41437
   C        7.82877         0.71517        -1.08143
   C        9.09073         0.15681        -0.92018
   C        9.77226        -0.02402        -2.13853
   S        8.86057         0.50451        -3.47298
   C       11.04675        -0.59009        -1.86556
   C       11.15652        -0.77280        -0.47198
   C        9.92841        -0.32645         0.16467
   C        9.60148        -0.37198         1.48765
   C       10.48106        -0.87907         2.46751
   N       11.19429        -1.28678         3.26679
   C        8.35094         0.08992         1.95083
   N        7.33384         0.47592         2.31332
   C       12.38905        -1.29890        -0.10365
   C       13.19971        -1.51887        -1.20790
   S       12.44004        -1.07308        -2.72030
   C       14.53920        -1.99047        -1.12276
   C       15.46890        -2.42782        -2.06505
   C       15.19150        -2.60774        -3.49036
   O       14.35636        -1.96093        -4.07377
   O       15.87318        -3.56644        -4.13188
   C       16.63255        -2.70526        -1.27370
   N       16.37244        -2.47954        -0.00460
   O       15.09875        -2.06035         0.09585
   C       17.97593        -3.06166        -1.64987
   C       18.93884        -3.51827        -0.77605
   C       20.18202        -3.65255        -1.39964
   C       20.15584        -3.27820        -2.75296
   S       18.61041        -2.76840        -3.26078
   C       21.45704        -3.41499        -3.30326
   C       22.31036        -3.87778        -2.27713
   C       21.53692        -4.05355        -1.05578
   C       21.98341        -4.50849         0.14882
   C       23.32902        -4.88086         0.35917
   N       24.41802        -5.19395         0.52999
   C       21.12980        -4.65473         1.26361
   N       20.44144        -4.78384         2.17090
   C       23.61587        -4.01945        -2.71173
   C       23.76872        -3.68989        -4.06264
   S       22.24604        -3.19628        -4.79636
   C       25.02401        -3.73494        -4.69682
   C       25.35825        -3.51552        -6.00525
   C       26.69676        -3.57246        -6.57016
   C       27.88022        -3.63599        -5.88356
   C       29.14911        -3.66194        -6.50119
   N       30.20873        -3.68701        -6.94134
   C       28.01242        -3.64724        -4.47869
   N       28.19895        -3.64321        -3.34572
   C       26.56304        -3.48507        -8.02043
   C       25.18619        -3.30195        -8.33983
   C       24.75069        -3.18121        -9.62830
   C       25.69169        -3.24412       -10.67998
   C       25.30341        -3.12920       -12.02914
   C       26.23256        -3.19679       -13.03200
   C       27.58969        -3.38139       -12.72905
   C       27.99983        -3.49663       -11.42834
   C       27.07014        -3.43191       -10.37097
   C       27.49062        -3.55061        -9.02584
   C       24.40443        -3.28069        -7.09873
   O       23.19950        -3.11605        -6.99815
   H        0.24986         5.70647        -1.52268
   H       -1.18105         5.84502         0.47745
   H       -0.84243         4.28839         2.35603
   H        0.92802         2.57959         2.25001
   H        2.76180         1.51281         1.07417
   H        2.12551         4.65710        -2.74703
   H        6.49258         1.99398        -3.95600
   H        7.17091         0.98209        -0.27484
   H       12.70690        -1.51768         0.89984
   H       16.45628        -4.07832        -3.55537
   H       18.71957        -3.72852         0.25425
   H       24.44247        -4.34081        -2.10304
   H       25.82729        -4.00147        -4.02012
   H       23.70147        -3.04142        -9.84244
   H       24.25696        -2.98726       -12.25624
   H       25.92658        -3.10854       -14.06362
   H       28.30974        -3.43199       -13.53186
   H       29.04382        -3.63809       -11.19036
   H       28.54036        -3.69643        -8.82710
*
