# ORCA input file
# SCF done       -149.400261492554          0.000664679698
! CAM-B3LYP def2-SVP def2/J RIJCOSX Grid4 TightSCF
%maxcore 5000
%tddft
    Mode sTDDFT
    Ethresh 5.0
    maxcore 5000
end

%pal
  nprocs 6
  end
* xyz 0 1
   C       -0.85768         0.04989        -4.51313
   C       -0.19740        -0.26763        -3.33088
   N       -0.50504        -1.34105        -2.62955
   C       -1.48303        -2.12593        -3.09815
   C       -2.13722        -1.79914        -4.29514
   N       -1.82486        -0.72310        -4.98816
   C       -1.81751        -3.28586        -2.31284
   C       -1.22278        -3.66255        -1.12717
   C       -1.79726        -4.82267        -0.60425
   C       -2.83609        -5.32524        -1.40940
   S       -3.09875        -4.37661        -2.80132
   C       -3.38086        -6.47996        -0.79239
   C       -2.68171        -6.70375         0.41181
   C       -1.65764        -5.67926         0.56055
   C       -0.75820        -5.55891         1.57857
   C       -0.72598        -6.46858         2.65668
   N       -0.69831        -7.20818         3.53258
   C        0.20101        -4.52487         1.62556
   N        0.98822        -3.69315         1.67638
   C       -3.16336        -7.79934         1.11669
   C       -4.21965        -8.40803         0.45061
   S       -4.61792        -7.62419        -1.07184
   C       -4.98246        -9.51585         0.85537
   C       -6.01802       -10.08925         0.11012
   C       -6.66431       -11.18838         0.77211
   N       -7.71311       -11.79486         0.21074
   C       -8.09337       -11.36170        -0.97128
   C       -9.30032       -11.99581        -1.56178
   O      -10.00397       -12.76321        -0.94261
   C       -9.59450       -11.59520        -2.94965
   C       -8.92345       -10.64173        -3.60408
   C       -7.80406        -9.88339        -3.02003
   O       -7.24536        -8.98478        -3.61415
   C       -7.40561       -10.30864        -1.65589
   N       -6.39090        -9.68070        -1.10148
   C       -6.10537       -11.46376         2.02782
   S       -4.80852       -10.35119         2.36492
   C       -6.51488       -12.46240         2.93102
   C       -7.42703       -13.47971         2.67379
   C       -7.62420       -14.28371         3.78949
   C       -6.87846       -13.86872         4.91080
   S       -5.90004       -12.51054         4.57890
   C       -7.19497       -14.71393         6.00128
   C       -8.13703       -15.66797         5.57481
   C       -8.41307       -15.45095         4.16445
   C       -9.19391       -16.21345         3.34877
   C       -9.92037       -17.32510         3.82871
   N      -10.52245       -18.22256         4.21072
   C       -9.29063       -15.99306         1.95646
   N       -9.34606       -15.87075         0.81851
   C       -8.51556       -16.54241         6.59572
   C       -7.87592       -16.25560         7.78265
   S       -6.78191       -14.89378         7.64726
   C       -8.04742       -16.95300         9.03064
   C       -7.37157       -16.59376        10.20593
   N       -7.54753       -17.24504        11.33759
   C       -8.39532       -18.26473        11.32964
   C       -9.07098       -18.63039        10.17009
   N       -8.90104       -17.98424         9.03341
   H       -0.61654         0.92953        -5.09212
   H        0.59558         0.34929        -2.93126
   H       -2.92813        -2.41995        -4.69595
   H       -0.41965        -3.09807        -0.69047
   H       -2.79105        -8.15407         2.06110
   H      -10.42324       -12.11683        -3.40896
   H       -9.18530       -10.36274        -4.61588
   H       -7.90814       -13.58365         1.71780
   H       -9.21935       -17.34986         6.51227
   H       -6.67703       -15.76373        10.22883
   H       -8.52800       -18.78743        12.26575
   H       -9.76531       -19.45888        10.14585
*
