# ORCA input file
# SCF done       -196.886440426064          0.000735287612
! CAM-B3LYP def2-SVP def2/J RIJCOSX Grid4 TightSCF
%maxcore 5000
%tddft
    Mode sTDDFT
    Ethresh 5.0
    maxcore 5000
end

%pal
  nprocs 6
  end
* xyz 0 1
   C        0.78231         5.92328         0.94260
   C        1.51148         5.03451         1.68790
   C        2.92179         5.00131         1.71939
   N        4.06497         4.92336         1.78517
   C        0.97040         4.06204         2.55550
   N        0.60470         3.26061         3.29205
   C        1.33288         6.98789         0.11260
   C        0.26458         7.78612        -0.37194
   C        0.46279         8.87534        -1.18624
   C        1.77666         9.18922        -1.54637
   C        2.83673         8.38481        -1.06206
   C        2.63661         7.28636        -0.23365
   S        4.37054         8.95156        -1.64066
   C        3.59787        10.23317        -2.50703
   C        2.25333        10.24401        -2.37438
   C       -1.00632         7.24302         0.12560
   O       -2.11972         7.70120        -0.06886
   C       -0.66569         6.02924         0.88072
   C       -1.56051         5.09790         1.33263
   C       -2.96635         5.10524         1.30582
   C       -3.71447         3.99238         1.70542
   C       -5.07579         4.21243         1.61706
   C       -5.38054         5.52157         1.17464
   S       -3.99702         6.44919         0.82058
   C       -6.79295         5.65246         1.13080
   C       -7.37240         4.43028         1.53124
   C       -6.31565         3.48740         1.84960
   C       -6.45848         2.19723         2.26812
   C       -5.35057         1.36410         2.53240
   N       -4.45597         0.67834         2.74125
   C       -7.72493         1.60397         2.45724
   N       -8.74973         1.11436         2.61436
   C       -8.76442         4.46117         1.51456
   C       -9.23615         5.69885         1.11975
   S       -7.96080         6.84059         0.75783
   C      -10.59648         6.11411         1.00781
   N      -10.83705         7.39102         0.75025
   N      -12.03282         7.88267         0.66408
   C      -13.12840         7.15116         0.80190
   C      -13.01008         5.75232         1.04665
   C      -11.69006         5.21450         1.16853
   N      -11.70417         3.90669         1.40918
   S      -13.23017         3.40682         1.47508
   N      -13.94557         4.82013         1.20270
   C      -14.38923         7.81346         0.71898
   C      -15.64696         7.24084         0.75206
   C      -16.64706         8.20619         0.67292
   C      -16.13433         9.51655         0.58920
   S      -14.42769         9.55700         0.58712
   C      -17.22947        10.41762         0.55261
   C      -18.42727         9.67850         0.59150
   C      -18.09921         8.26409         0.66633
   C      -18.96767         7.21441         0.72037
   C      -18.52745         5.87549         0.79820
   N      -18.18099         4.78427         0.85655
   C      -20.36738         7.39339         0.69111
   N      -21.50460         7.53201         0.65656
   C      -19.56126        10.48427         0.56212
   C      -19.24544        11.83267         0.55518
   S      -17.50379        12.09683         0.51050
   C      -20.18198        12.89626         0.51591
   C      -20.04016        14.19106         0.89787
   C      -19.04530        14.87698         1.69836
   C      -18.34028        14.33754         2.74268
   C      -17.45899        15.07497         3.55901
   N      -16.72015        15.62811         4.24101
   C      -18.49837        13.00672         3.18014
   N      -18.63646        11.94386         3.59179
   C      -19.16078        16.29967         1.40499
   C      -20.34628        16.51326         0.65317
   C      -20.99105        15.21753         0.37767
   O      -22.03706        15.00671        -0.19036
   C      -20.76120        17.76841         0.27712
   C      -19.96782        18.85787         0.64902
   C      -18.77783        18.63116         1.38340
   C      -18.36035        17.36360         1.77187
   S      -17.95569        20.12026         1.72302
   C      -19.18815        21.01604         0.90453
   C      -20.17158        20.24330         0.39398
   H       -0.37095         9.46382        -1.53652
   H        3.47666         6.70322         0.10473
   H        4.20844        10.91033        -3.07213
   H        1.60784        10.96593        -2.84089
   H       -1.15194         4.18826         1.75711
   H       -3.25229         3.07936         2.03692
   H       -9.41963         3.64863         1.77121
   H      -15.79501         6.17940         0.83529
   H      -20.57548        10.12864         0.58606
   H      -21.13785        12.65355         0.05952
   H      -21.67298        17.90497        -0.28328
   H      -17.44523        17.23545         2.32639
   H      -19.09810        22.08382         0.85547
   H      -21.01879        20.62536        -0.14610
*
