# ORCA input file
# SCF done       -208.852677295804          0.000612086679
! CAM-B3LYP def2-SVP def2/J RIJCOSX Grid4 TightSCF
%maxcore 5000
%tddft
    Mode sTDDFT
    Ethresh 5.0
    maxcore 5000
end

%pal
  nprocs 6
  end
* xyz 0 1
   C        1.18527        -0.14307        -0.19908
   C        0.97110         0.83457        -1.15765
   C       -0.04134         1.79007        -0.81982
   C       -0.46413         2.85434        -1.57268
   C        0.04265         3.19956        -2.84216
   N        0.39809         3.54776        -3.87524
   C       -1.48183         3.71386        -1.10366
   N       -2.30746         4.41549        -0.72958
   S       -0.74183         1.45317         0.75053
   C        0.30893         0.02021         0.98385
   O        0.25371        -0.64644         1.97530
   C        1.66234         0.90861        -2.37795
   N        2.24127         0.94227        -3.36870
   C        2.10611        -1.21358        -0.24429
   C        2.26453        -2.22269         0.70686
   C        3.25723        -3.12122         0.35803
   C        3.87623        -2.80138        -0.87688
   S        3.22742        -1.40519        -1.60050
   C        4.86666        -3.76301        -1.14421
   C        4.89019        -4.70276        -0.08697
   C        3.85659        -4.34189         0.87495
   C        3.48909        -5.03755         1.98659
   C        4.06138        -6.28351         2.33079
   N        4.47757        -7.31655         2.59918
   C        2.46498        -4.59607         2.85462
   N        1.63946        -4.25442         3.57177
   C        5.86351        -5.67721        -0.24711
   C        6.57411        -5.49945        -1.43336
   S        6.02818        -4.10273        -2.34921
   C        7.61725        -6.31123        -1.91118
   C        8.23726        -7.37947        -1.24437
   C        9.25436        -8.00764        -2.03773
   N        9.94069        -9.06022        -1.59817
   C        9.66955        -9.47952        -0.38024
   C       10.40417       -10.67635         0.10554
   O       11.22876       -11.25151        -0.57128
   C       10.04464       -11.11630         1.46506
   C        9.17498       -10.47000         2.24812
   C        8.47913        -9.23232         1.84981
   O        7.79936        -8.58916         2.61603
   C        8.70369        -8.81445         0.43808
   N        7.99470        -7.79687         0.00100
   C        9.43029        -7.41375        -3.29544
   S        8.32788        -6.09211        -3.48612
   C       10.36051        -7.82334        -4.26209
   C       10.57333        -7.27348        -5.52247
   C       11.57732        -7.94240        -6.20379
   C       12.13440        -9.00708        -5.45614
   S       11.41857        -9.18269        -3.91457
   C       13.14688        -9.61349        -6.23729
   C       13.22415        -8.93807        -7.47552
   C       12.25280        -7.86054        -7.48800
   C       12.05680        -6.94604        -8.48072
   C       12.82370        -6.97577        -9.66492
   N       13.45760        -7.01919       -10.61932
   C       11.08807        -5.92559        -8.37753
   N       10.29351        -5.10442        -8.28675
   C       14.21049        -9.44255        -8.30847
   C       14.90429       -10.49333        -7.72239
   S       14.28241       -10.87642        -6.12248
   C       15.95705       -11.25725        -8.27381
   C       16.76343       -10.93999        -9.32441
   C       17.48985       -12.03755       -10.03044
   O       17.64138       -13.16872        -9.63521
   C       17.91078       -11.45407       -11.31879
   C       18.48568       -12.06856       -12.39416
   C       18.76148       -11.30798       -13.55266
   C       18.42747        -9.92214       -13.57737
   C       18.69159        -9.17327       -14.74168
   C       19.26457        -9.77064       -15.82921
   C       19.59754       -11.14045       -15.80288
   C       19.35200       -11.89405       -14.68931
   F       20.15691       -11.69942       -16.88323
   F       19.51568        -9.05875       -16.93422
   C       17.84188        -9.31062       -12.44550
   C       17.59684       -10.06486       -11.32962
   C       17.03132        -9.70452       -10.03210
   C       17.01832        -8.43667        -9.51284
   C       16.66628        -8.13177        -8.18353
   N       16.40403        -7.83924        -7.10469
   C       17.44157        -7.29402       -10.22548
   N       17.77994        -6.33569       -10.75722
   H        1.66805        -2.26883         1.60058
   H        6.08492        -6.48152         0.43187
   H       10.55015       -12.01059         1.80376
   H        8.95025       -10.81758         3.24735
   H       10.01280        -6.43383        -5.89315
   H       14.39859        -9.10224        -9.31022
   H       16.10554       -12.25044        -7.86165
   H       18.72341       -13.12092       -12.36358
   H       18.44582        -8.12344       -14.77671
   H       19.61201       -12.94098       -14.68608
   H       17.58672        -8.26402       -12.49349
*
