# ORCA input file
# SCF done       -217.177850286555          0.000342556956
! CAM-B3LYP def2-SVP def2/J RIJCOSX Grid4 TightSCF
%maxcore 5000
%tddft
    Mode sTDDFT
    Ethresh 5.0
    maxcore 5000
end

%pal
  nprocs 6
  end
* xyz 0 1
   C        2.11791        -7.04920        -9.11187
   C        2.31067        -8.01578       -10.05888
   F        3.22569        -7.84136       -11.02297
   C        1.55435        -9.20382       -10.03495
   F        1.76522       -10.13618       -10.97551
   C        0.61398        -9.40884        -9.06438
   C        0.39223        -8.43181        -8.07506
   C        1.15730        -7.23043        -8.09702
   C        0.95460        -6.23572        -7.11180
   C        0.01633        -6.43713        -6.13493
   C       -0.74329        -7.63955        -6.12338
   C       -0.57233        -8.61720        -7.05910
   C       -1.67429        -7.60938        -4.97935
   O       -2.47392        -8.48070        -4.68398
   C       -1.43091        -6.34088        -4.28879
   C       -0.40692        -5.61137        -5.00391
   C        0.09149        -4.36452        -4.71436
   C       -0.31040        -3.53983        -3.64449
   N       -0.57892        -2.80190        -2.80510
   C        1.09175        -3.71957        -5.47016
   N        1.90364        -3.13804        -6.03740
   C       -2.05403        -5.92310        -3.13329
   C       -3.05598        -6.52623        -2.37037
   C       -3.55594        -5.93408        -1.19677
   C       -4.55360        -6.65051        -0.57584
   C       -4.83589        -7.83562        -1.30050
   S       -3.87207        -8.04356        -2.69957
   C       -5.85543        -8.64212        -0.76000
   C       -6.45133        -8.16512         0.42571
  Si       -5.66642        -6.53981         0.92994
   C       -4.72992        -6.63727         2.54836
   C       -6.84989        -5.09066         0.86245
   C       -7.44389        -9.02802         0.86221
   C       -7.62318       -10.14177         0.04422
   S       -6.52613       -10.12939        -1.31155
   C       -8.55990       -11.19251         0.20873
   C       -8.63752       -12.24869        -0.73287
   C       -9.58396       -13.31358        -0.61602
   N       -9.61068       -14.28090        -1.54811
   C       -8.77237       -14.23297        -2.54614
   C       -7.83795       -13.18539        -2.65955
   N       -7.78566       -12.23177        -1.77143
   C      -10.51001       -13.39550         0.45296
   C      -10.43032       -12.35359         1.40532
   C       -9.47472       -11.27130         1.28428
   N       -9.58650       -10.40578         2.29324
   S      -10.75352       -10.88902         3.28254
   N      -11.18667       -12.21869         2.49587
   C      -11.44249       -14.46032         0.52293
   C      -12.40624       -14.68444         1.50339
   C      -13.17843       -15.81462         1.28462
   C      -12.78783       -16.46518         0.09717
   S      -11.48525       -15.68586        -0.71698
   C      -13.52248       -17.62073        -0.22452
   C      -14.53343       -17.99045         0.68454
  Si      -14.60249       -16.73778         2.08031
   C      -14.16276       -17.47804         3.74355
   C      -16.20109       -15.76631         2.10125
   C      -15.17395       -19.14725         0.27381
   C      -14.71896       -19.65358        -0.94224
   S      -13.40152       -18.67750        -1.56733
   C      -15.15776       -20.83546        -1.56386
   C      -14.94260       -21.26427        -2.84535
   C      -14.99992       -22.71175        -3.16063
   O      -15.44583       -23.59537        -2.46310
   C      -14.33569       -22.84522        -4.47690
   C      -14.00660       -23.97727        -5.16365
   C      -13.33174       -23.85895        -6.40037
   C      -13.01034       -22.56442        -6.90170
   C      -12.32974       -22.45495        -8.13065
   C      -11.98560       -23.57731        -8.83027
   C      -12.30450       -24.85662        -8.33443
   C      -12.96418       -24.99605        -7.14552
   F      -11.95271       -25.94119        -9.04055
   F      -11.33748       -23.47023        -9.99906
   C      -13.37405       -21.40846        -6.17282
   C      -14.02978       -21.54870        -4.98039
   C      -14.54468       -20.55798        -4.03850
   C      -14.85612       -19.25796        -4.35115
   C      -15.63307       -18.43199        -3.51427
   N      -16.30946       -17.75557        -2.87889
   C      -14.52397       -18.64598        -5.57430
   N      -14.25904       -18.10063        -6.54954
   H        2.70572        -6.14516        -9.14480
   H        0.04261       -10.32384        -9.05975
   H        1.55193        -5.33986        -7.15763
   H       -1.16361        -9.51957        -7.02447
   H       -1.72934        -4.97257        -2.72744
   H       -3.17160        -4.99459        -0.83875
   H       -4.03891        -7.47776         2.57494
   H       -5.40378        -6.75136         3.39507
   H       -4.14513        -5.73754         2.72883
   H       -7.38664        -5.04110        -0.08312
   H       -6.33059        -4.14222         0.98436
   H       -7.59738        -5.14554         1.65127
   H       -8.04007        -8.87925         1.74349
   H       -8.83118       -15.03084        -3.27238
   H       -7.13359       -13.13040        -3.47701
   H      -12.51662       -14.02044         2.34073
   H      -13.23412       -18.04500         3.71155
   H      -14.93736       -18.15386         4.10031
   H      -14.04066       -16.70888         4.50328
   H      -16.46395       -15.39164         1.11368
   H      -16.14092       -14.90637         2.76544
   H      -17.03646       -16.37371         2.44392
   H      -15.97923       -19.61537         0.81194
   H      -15.65816       -21.54908        -0.91590
   H      -14.25467       -24.95115        -4.76985
   H      -12.08139       -21.48238        -8.52594
   H      -13.20082       -25.98293        -6.77973
   H      -13.11464       -20.43966        -6.56937
*
