# ORCA input file
# SCF done       -197.766650158464          0.000848173734
! CAM-B3LYP def2-SVP def2/J RIJCOSX Grid4 TightSCF
%maxcore 5000
%tddft
    Mode sTDDFT
    Ethresh 5.0
    maxcore 5000
end

%pal
  nprocs 6
  end
* xyz 0 1
   C       -1.09906        -0.89833         1.20125
   C       -0.40938        -2.00786         1.61350
   C       -0.34685        -3.21284         0.88655
   N       -0.24550        -4.20631         0.31964
   C        0.40415        -2.04355         2.76597
   N        1.08675        -2.12555         3.68469
   C       -0.98620         0.42697         1.80775
   C       -1.38326         1.39404         0.86429
   C       -1.33330         2.74167         1.16602
   C       -0.89185         3.11924         2.42476
   C       -0.51430         2.17450         3.37694
   C       -0.56161         0.81556         3.06430
   C       -0.07722         2.59961         4.74173
   C       -1.83669         0.72551        -0.36601
   O       -2.19560         1.22395        -1.40785
   C       -1.82139        -0.73384        -0.04281
   C       -2.50140        -1.59401        -0.84863
   C       -2.94058        -2.90460        -0.55744
   C       -3.12299        -3.50181         0.68195
   C       -3.58808        -4.80442         0.57457
   C       -3.77275        -5.21596        -0.76364
   S       -3.39474        -3.98198        -1.87367
   C       -4.21210        -6.55979        -0.76582
   C       -4.30245        -6.99952         0.57299
   C       -3.90858        -5.91326         1.45482
   C       -3.82314        -5.92967         2.81635
   C       -4.15110        -7.06806         3.58224
   N       -4.42946        -7.98663         4.20939
   C       -3.39685        -4.79463         3.53762
   N       -3.05250        -3.86193         4.10948
   C       -4.71523        -8.31852         0.68326
   C       -4.94517        -8.90107        -0.55818
   S       -4.64002        -7.78067        -1.88101
   C       -5.36490       -10.22724        -0.84685
   C       -5.63407       -11.21916         0.13690
   C       -6.03475       -12.55404        -0.21277
   N       -6.27199       -13.44915         0.76756
   C       -6.13266       -13.09202         2.01229
   C       -5.74170       -11.78263         2.35504
   N       -5.50591       -10.88830         1.43794
   C       -6.19021       -12.96908        -1.56480
   C       -5.93354       -11.97746        -2.53274
   C       -5.53205       -10.64238        -2.18289
   N       -5.34476        -9.88475        -3.26607
   S       -5.64061       -10.75467        -4.58134
   N       -6.02078       -12.13355        -3.85570
   C       -6.57110       -14.27813        -1.96548
   C       -6.85808       -15.37774        -1.16415
   C       -7.19389       -16.49576        -1.91279
   C       -7.16481       -16.25717        -3.30444
   S       -6.72257       -14.65069        -3.67948
   C       -7.52411       -17.44671        -3.97675
   C       -7.78101       -18.44511        -3.00336
   C       -7.57609       -17.87831        -1.67959
   C       -7.70436       -18.50514        -0.47514
   C       -8.06833       -19.86432        -0.36852
   N       -8.35881       -20.96933        -0.27411
   C       -7.47544       -17.83931         0.74784
   N       -7.29279       -17.30899         1.74799
   C       -8.15187       -19.64665        -3.57348
   C       -8.17601       -19.59299        -4.97334
   S       -7.72008       -17.99983        -5.57632
   C       -8.54818       -20.70407        -5.74716
   C       -8.60455       -20.85814        -7.10769
   C       -9.01948       -22.05486        -7.81712
   C       -9.54410       -23.20077        -7.28092
   C       -9.79105       -23.43354        -5.91094
   N      -10.03308       -23.69852        -4.82002
   C       -9.93842       -24.32223        -8.04192
   N      -10.27658       -25.26808        -8.59758
   C       -8.81345       -21.80813        -9.24456
   C       -8.33100       -20.49702        -9.41323
   C       -8.20046       -19.85239        -8.10097
   O       -7.82420       -18.71238        -7.88405
   C       -8.04988       -19.99014       -10.66694
   C       -8.25255       -20.80823       -11.76762
   C       -8.72624       -22.10964       -11.62345
   C       -9.00926       -22.61264       -10.35206
   C       -8.95475       -22.97729       -12.81925
   H       -1.63154         3.47330         0.43105
   H       -0.84195         4.16818         2.67785
   H       -0.28000         0.08837         3.80950
   H        0.25497         3.63443         4.74363
   H        0.72794         1.96389         5.10266
   H       -0.91029         2.50796         5.43937
   H       -2.79532        -1.18766        -1.81152
   H       -2.95981        -2.98494         1.61003
   H       -4.85252        -8.86574         1.59708
   H       -6.33482       -13.84875         2.75737
   H       -5.62368       -11.46466         3.38151
   H       -6.81294       -15.32144        -0.09273
   H       -8.40260       -20.54138        -3.03120
   H       -8.82242       -21.56192        -5.14475
   H       -7.68088       -18.98166       -10.77347
   H       -8.03832       -20.43233       -12.75730
   H       -9.37319       -23.62296       -10.25759
   H       -8.46181       -22.57315       -13.69938
   H      -10.02301       -23.04675       -13.02531
   H       -8.58955       -23.98568       -12.63671
*
