# ORCA input file
# SCF done       -186.481995075223          0.000903426611
! CAM-B3LYP def2-SVP def2/J RIJCOSX Grid4 TightSCF
%maxcore 5000
%tddft
    Mode sTDDFT
    Ethresh 5.0
    maxcore 5000
end

%pal
  nprocs 6
  end
* xyz 0 1
   C        3.50053        -2.33208         3.36076
   O        3.02457        -3.19436         4.07024
   C        4.70256        -1.53783         3.69920
   C        4.96139        -0.60195         2.68552
   C        6.05609         0.24043         2.79607
   C        6.86732         0.13335         3.91989
   C        6.59610        -0.79628         4.92564
   C        5.50250        -1.64471         4.81774
  Br        7.71464        -0.91455         6.44532
  Br        8.36575         1.27775         4.06916
   C        3.93255        -0.73666         1.65802
   C        3.77882         0.10957         0.59250
   C        4.64508         1.19077         0.31883
   N        5.31470         2.08072         0.04193
   C        2.73785         0.07999        -0.36278
   N        1.93075         0.17187        -1.17443
   C        3.07631        -1.85923         2.02432
   C        2.17187        -2.39322         1.14629
   C        1.19000        -3.42005         1.24531
   C        0.59042        -3.86121         0.03030
   O        1.07693        -3.33564        -1.11390
   C        0.48196        -3.68456        -2.34334
   C       -0.43199        -4.79564         0.08223
   C       -0.88119        -5.31782         1.28847
   C       -0.25468        -4.93006         2.49462
   C        0.74612        -3.98004         2.45138
   O       -0.64759        -5.56848         3.62304
   C       -0.04917        -5.19679         4.84472
   C       -1.97336        -6.28509         1.29663
   C       -3.06042        -6.17017         2.17869
   C       -4.07653        -7.18485         2.26339
   N       -5.08325        -7.05129         3.16372
   C       -5.10638        -5.98971         3.91084
   C       -4.14972        -4.95435         3.76723
   N       -3.16750        -5.04443         2.92481
   C       -4.07261        -8.30711         1.41719
   C       -3.01926        -8.39457         0.49985
   C       -1.98057        -7.38780         0.43536
   N       -1.05510        -7.69206        -0.48696
   S       -1.44904        -9.08540        -1.16896
   N       -2.78953        -9.39221        -0.36380
   C       -5.10181        -9.33933         1.49930
   C       -5.75342        -9.79412         0.33013
   O       -5.44487        -9.15643        -0.82493
   C       -6.00610        -9.62915        -2.02654
   C       -6.69215       -10.79728         0.44616
   C       -7.00895       -11.39440         1.67853
   C       -6.40008       -10.88072         2.84779
   C       -5.45875        -9.86714         2.72931
   O       -6.80515       -11.39135         4.03472
   C       -6.30877       -10.82321         5.22715
   C       -8.00641       -12.41798         1.66591
   C       -8.33000       -13.42328         2.52570
   C       -9.66658       -14.06207         2.36806
   O      -10.43498       -13.92670         1.44504
   C       -9.86567       -14.85830         3.59920
   C       -8.69853       -14.80215         4.38221
   C       -7.68647       -14.02339         3.66966
   C       -6.34365       -14.04156         3.93996
   C       -5.36873       -13.50540         3.07617
   N       -4.54247       -13.10209         2.38949
   C       -5.77455       -14.64915         5.07707
   N       -5.26990       -15.09341         6.00751
   C       -8.65835       -15.45504         5.60237
   C       -9.78417       -16.15723         6.01848
   C      -10.93321       -16.21901         5.22858
   C      -10.97936       -15.56329         4.00462
  Br      -12.44516       -17.19206         5.81425
  Br       -9.73572       -17.03646         7.69221
   H        6.30113         0.96847         2.04004
   H        5.28192        -2.36983         5.58585
   H        2.20648        -1.97102         0.14862
   H        1.02103        -3.11216        -3.09637
   H       -0.57568        -3.40776        -2.36691
   H        0.58856        -4.75392        -2.54804
   H       -0.91514        -5.13287        -0.81943
   H        1.21779        -3.65119         3.35895
   H       -0.48616        -5.85373         5.59519
   H       -0.27517        -4.15675         5.09686
   H        1.03512        -5.33681         4.82308
   H       -5.91288        -5.91583         4.62865
   H       -4.22298        -4.03873         4.33879
   H       -7.09509        -9.51675        -2.03421
   H       -5.74252       -10.67562        -2.20488
   H       -5.57728        -9.01055        -2.81330
   H       -7.19396       -11.17866        -0.42869
   H       -4.95699        -9.48540         3.60157
   H       -6.82725       -11.33846         6.03487
   H       -6.52466        -9.75286         5.27758
   H       -5.23182       -10.98693         5.32835
   H       -8.68944       -12.35891         0.82090
   H       -7.78852       -15.42814         6.23886
   H      -11.86277       -15.60353         3.38644
*
