# ORCA input file
# SCF done       -204.170322819595          0.000975858307
! CAM-B3LYP def2-SVP def2/J RIJCOSX Grid4 TightSCF
%maxcore 5000
%tddft
    Mode sTDDFT
    Ethresh 5.0
    maxcore 5000
end

%pal
  nprocs 6
  end
* xyz 0 1
   C        0.45567        -2.13750        -2.88564
   O       -0.68326        -2.42584        -2.59152
   C        0.94402        -0.77621        -3.18909
   C        2.31159        -0.81804        -3.50601
   C        2.97207         0.35538        -3.83348
   C        2.25453         1.54612        -3.83360
   C        0.89489         1.57612        -3.51188
   C        0.22775         0.40252        -3.18685
  Br       -0.05598         3.20843        -3.51492
  Br        3.16014         3.14347        -4.28274
   C        2.77517        -2.20019        -3.40576
   C        4.07681        -2.59987        -3.55482
   C        5.13865        -1.72497        -3.87544
   N        6.04355        -1.07087        -4.13942
   C        4.57177        -3.91213        -3.39119
   N        5.06322        -4.94189        -3.26060
   C        1.62737        -3.02669        -3.06141
   C        1.66481        -4.39479        -3.00912
   C        0.69540        -5.34023        -2.62471
   C       -0.56947        -5.22480        -2.05840
   C       -1.14073        -6.46171        -1.79900
   C       -0.31417        -7.54701        -2.17022
   S        1.16381        -7.03846        -2.82605
   C       -0.99301        -8.75588        -1.86111
   C       -2.23615        -8.43328        -1.30023
   C       -2.36869        -6.98892        -1.22356
   C       -3.41253        -6.30183        -0.67778
   C       -4.50861        -6.98768        -0.11124
   N       -5.37925        -7.57088         0.35505
   C       -3.46469        -4.89280        -0.60217
   N       -3.52871        -3.75228        -0.51382
   C       -2.98039        -9.56765        -0.95919
   C       -2.30871       -10.72588        -1.25710
   S       -0.74165       -10.44415        -1.95526
   C       -2.82322       -12.10378        -0.96377
   C       -1.91803       -13.20632        -1.50844
   N       -2.78007       -12.17333         0.51516
   N       -3.71937       -12.20647         1.26289
   C       -5.14980       -12.27996         0.89364
   C       -5.32940       -12.25318        -0.58079
   C       -4.21661       -12.20586        -1.46788
   N       -4.67788       -12.22717        -2.68548
   O       -6.01018       -12.29189        -2.57996
   N       -6.41097       -12.30985        -1.30383
   C       -5.87252       -11.13051         1.59480
   C       -5.57487       -13.62493         1.40473
   C       -5.13549       -14.82562         0.90909
   C       -5.67998       -15.90642         1.61288
   C       -6.53501       -15.49933         2.64616
   S       -6.65925       -13.80046         2.75312
   C       -7.04157       -16.65917         3.29535
   C       -6.49348       -17.79345         2.66386
   C       -5.62406       -17.35604         1.58375
   C       -4.91843       -18.14057         0.71890
   C       -4.97750       -19.54822         0.78863
   N       -5.04110       -20.69014         0.86827
   C       -4.09036       -17.57392        -0.27246
   N       -3.41165       -17.08303        -1.05564
   C       -6.93989       -18.98769         3.21201
   C       -7.83194       -18.78399         4.25665
   S       -8.08414       -17.06937         4.57103
   C       -8.47458       -19.73055         5.08084
   C       -8.65651       -21.06739         4.88470
   C       -8.97012       -21.91744         6.06737
   O       -9.29202       -21.53758         7.16740
   C       -8.74666       -23.30594         5.61178
   C       -8.44968       -23.30599         4.23635
   C       -8.53715       -21.93533         3.73206
   C       -8.73904       -21.60154         2.41904
   C       -9.06905       -20.30384         1.98092
   N       -9.36168       -19.26648         1.58633
   C       -8.73762       -22.53666         1.36113
   N       -8.75322       -23.25905         0.47077
   C       -8.15945       -24.49663         3.59309
   C       -8.18272       -25.67371         4.33332
   C       -8.49760       -25.66771         5.69438
   C       -8.78034       -24.47360         6.34551
  Br       -8.53660       -27.28529         6.66942
  Br       -7.77691       -27.30163         3.46514
   H        4.01857         0.37536        -4.09003
   H       -0.82193         0.40732        -2.93681
   H        2.59847        -4.85343        -3.31296
   H       -1.03083        -4.27344        -1.86261
   H       -3.96096        -9.54412        -0.51998
   H       -0.93658       -13.13081        -1.04724
   H       -1.83084       -13.10449        -2.58734
   H       -2.33277       -14.18674        -1.28376
   H       -5.55746       -10.17016         1.19209
   H       -5.64157       -11.15237         2.65682
   H       -6.94459       -11.23311         1.44573
   H       -4.45651       -14.91849         0.08054
   H       -6.60315       -19.96196         2.90805
   H       -8.81848       -19.36728         6.04498
   H       -7.90510       -24.53531         2.54603
   H       -9.01946       -24.45783         7.39748
*
