# ORCA input file
# SCF done       -183.596950418990          0.000849944181
! CAM-B3LYP def2-SVP def2/J RIJCOSX Grid4 TightSCF
%maxcore 5000
%tddft
    Mode sTDDFT
    Ethresh 5.0
    maxcore 5000
end

%pal
  nprocs 6
  end
* xyz 0 1
   C       -8.25255        -1.69458         1.84708
   O       -7.74806        -2.79950         1.83741
   C       -9.63774        -1.36110         1.46013
   C       -9.85903         0.01372         1.65503
   C      -11.10085         0.55224         1.36276
   C      -12.09567        -0.29173         0.88007
   C      -11.86188        -1.65398         0.68470
   C      -10.61877        -2.20049         0.97711
  Br      -13.23250        -2.77338         0.02367
  Br      -13.79288         0.44300         0.48872
   C       -8.62768         0.62336         2.16022
   C       -8.45519         1.95930         2.41574
   C       -9.46915         2.92834         2.25925
   N      -10.25318         3.76040         2.15818
   C       -7.25861         2.56655         2.85298
   N       -6.32704         3.14313         3.19738
   C       -7.64739        -0.43356         2.29201
   C       -6.38930        -0.30752         2.82923
   C       -5.36320        -1.25394         2.92428
   C       -4.14199        -0.96811         3.57174
   C       -3.22012        -2.01322         3.49289
   S       -1.61733        -2.09883         4.19606
   C       -1.61589        -0.63226         5.28366
   C       -2.11201         0.59760         4.56021
   S       -3.92392         0.56855         4.37772
   C       -3.71045        -3.08282         2.73136
   S       -5.34796        -2.84172         2.20027
   C       -3.07509        -4.28904         2.40480
   C       -3.60787        -5.24024         1.51882
   C       -2.79106        -6.40708         1.40632
   N       -3.12169        -7.41698         0.60976
   C       -4.22619        -7.28843        -0.09693
   C       -4.57854        -8.41193        -0.99820
   O       -3.90918        -9.42419        -1.06639
   C       -5.79414        -8.20992        -1.79804
   C       -6.53883        -7.10092        -1.73532
   C       -6.23198        -5.94579        -0.86964
   O       -6.90240        -4.93765        -0.88014
   C       -5.02877        -6.10800        -0.00985
   N       -4.71777        -5.11181         0.79372
   C       -1.61497        -6.34672         2.16880
   S       -1.54450        -4.84485         3.03046
   C       -0.64750        -7.35748         2.10849
   C        0.66645        -7.38323         2.57626
   C        1.35381        -8.54738         2.18451
   S        3.01884        -8.96457         2.50250
   C        3.45765        -7.72419         3.76735
   C        3.07928        -6.32843         3.32771
   S        1.28535        -6.04014         3.50619
   C        0.57719        -9.38600         1.38760
   S       -1.04677        -8.78020         1.19984
   C        0.96464       -10.60927         0.79887
   C        0.34971       -11.20582        -0.26156
   C        0.47088       -12.66866        -0.49584
   O        1.28816       -13.42282        -0.02522
   C       -0.67812       -13.00109        -1.37243
   C       -1.33845       -11.81782        -1.75302
   C       -0.60485       -10.67745        -1.21880
   C       -0.62773        -9.41192        -1.73816
   C        0.28697        -8.40606        -1.35936
   N        1.04117        -7.57836        -1.10563
   C       -1.52652        -8.98035        -2.73422
   N       -2.23586        -8.56484        -3.53528
   C       -2.49057       -11.87291        -2.51560
   C       -2.96368       -13.12045        -2.90169
   C       -2.28955       -14.29179        -2.54991
   C       -1.13785       -14.23864        -1.77406
  Br       -2.94639       -15.97361        -3.11088
  Br       -4.55527       -13.21090        -3.91246
   H      -11.32167         1.59842         1.49899
   H      -10.41911        -3.25022         0.82778
   H       -6.13047         0.65892         3.24757
   H       -0.57407        -0.51944         5.58367
   H       -2.22503        -0.84963         6.16126
   H       -1.66248         0.69029         3.57144
   H       -1.90861         1.49930         5.13748
   H       -6.05320        -9.02512        -2.46005
   H       -7.42364        -6.98664        -2.34704
   H        4.53777        -7.81826         3.87930
   H        2.97199        -7.99144         4.70633
   H        3.35505        -6.14763         2.28852
   H        3.54445        -5.57757         3.96598
   H        1.77092       -11.15813         1.27538
   H       -3.03791       -10.98094        -2.77317
   H       -0.62054       -15.14146        -1.48844
*
