# ORCA input file
# SCF done       -252.976712924006          0.000891918873
! CAM-B3LYP def2-SVP def2/J RIJCOSX Grid4 TightSCF
%maxcore 5000
%tddft
    Mode sTDDFT
    Ethresh 5.0
    maxcore 5000
end

%pal
  nprocs 6
  end
* xyz 0 1
   C        4.14082         5.63491         5.59978
   C        3.22274         6.49005         6.13971
   C        2.33870         6.13188         7.17818
   N        1.58569         5.87604         8.00505
   C        3.12084         7.84381         5.75819
   N        3.04573         8.96481         5.52561
   C        4.46368         4.29413         6.05837
   C        5.73052         3.92226         5.51771
   C        6.26260         2.68346         5.73391
   C        5.53441         1.74581         6.49981
   C        4.27561         2.11898         7.05592
   C        3.75663         3.41366         6.83190
   C        3.55345         1.16922         7.80665
   C        4.04637        -0.09350         7.99367
   C        5.28553        -0.46071         7.44660
   C        6.01565         0.44009         6.71919
   C        6.26305         5.02775         4.70168
   O        7.34269         5.12494         4.17168
   C        5.10922         5.97265         4.57301
   C        5.00772         6.74835         3.47003
   C        3.82453         7.31148         2.86571
   C        4.03277         8.57640         2.14206
   C        4.68889         9.63777         2.76338
   C        4.85418        10.83444         2.09816
   C        4.39083        10.98300         0.79211
   C        3.77719         9.90944         0.15007
   C        3.60552         8.71713         0.82096
   C        4.56045        12.29174         0.12271
   O        4.99199        13.28161         0.65861
   O        4.18236        12.28438        -1.16455
   C        2.63395         6.63733         2.80868
   C        2.51883         5.23135         3.24034
   C        1.51181         4.84962         4.12776
   C        1.42700         3.54487         4.56549
   C        2.34365         2.59450         4.11960
   C        3.32290         2.96028         3.19869
   C        3.40749         4.26595         2.76647
   C        2.26217         1.22167         4.66119
   O        1.42671         0.84337         5.44386
   O        3.23888         0.41603         4.21766
   C        1.43211         7.22760         2.25169
   C        0.54326         6.46091         1.46926
   C       -0.61939         7.04316         0.84793
   N       -1.45435         6.26391         0.13815
   C       -1.16818         5.00115        -0.03550
   C        0.03818         4.44129         0.51056
   N        0.83984         5.17038         1.23876
   C        0.37946         3.08584         0.27335
   N        0.63482         1.98882         0.06720
   C       -2.04723         4.19799        -0.80419
   N       -2.71760         3.53289        -1.45203
   C       -0.92587         8.41702         0.95721
   C       -0.07932         9.16750         1.79259
   C        1.07365         8.57449         2.43524
   N        1.73185         9.46990         3.17425
   S        1.01625        10.88645         3.05793
   N       -0.17462        10.47073         2.07426
   C       -1.95802         9.00811         0.13316
   C       -2.10950         8.43724        -1.21801
   C       -3.37210         8.18467        -1.75529
   C       -3.50914         7.78772        -3.06761
   C       -2.38542         7.59118        -3.86786
   C       -1.11932         7.76833        -3.31353
   C       -0.98502         8.19520        -2.00784
   C       -2.58956         7.30418        -5.31477
   O       -3.55159         7.69232        -5.91945
   O       -1.62032         6.61012        -5.93632
   C       -2.72738        10.06595         0.53422
   C       -2.86538        10.47318         1.93474
   C       -3.03569        11.82322         2.24245
   C       -3.19330        12.23528         3.55012
   C       -3.20182        11.30043         4.58330
   C       -3.07563         9.94621         4.27277
   C       -2.91204         9.53576         2.96831
   C       -3.37467        11.65543         6.02416
   O       -3.68684        10.84682         6.85404
   O       -3.15205        12.93555         6.36562
   C       -3.58268        10.78306        -0.39211
   C       -3.22897        11.19659        -1.62654
   C       -4.14385        11.61834        -2.68314
   C       -5.35168        12.23208        -2.51718
   C       -6.18294        12.62148        -3.58958
   N       -6.88779        12.96105        -4.42816
   C       -5.85828        12.61169        -1.25544
   N       -6.28455        12.95125        -0.24558
   C       -3.49541        11.28401        -3.94126
   C       -2.12074        11.00440        -3.68354
   C       -1.86829        11.08298        -2.23836
   O       -0.80286        11.09867        -1.66471
   C       -1.26426        10.64889        -4.68621
   C       -1.76372        10.49480        -5.99735
   C       -3.14350        10.74728        -6.25542
   C       -3.99687        11.16397        -5.21042
   C       -3.63639        10.55121        -7.56036
   C       -2.81174        10.11633        -8.56131
   C       -1.45481         9.86859        -8.30726
   C       -0.94074        10.05863        -7.05383
   H        7.22108         2.41524         5.31511
   H        2.79503         3.66759         7.24927
   H        2.59740         1.45413         8.21832
   H        3.48235        -0.81667         8.56294
   H        5.65920        -1.46152         7.60436
   H        6.96996         0.16235         6.29652
   H        5.93313         6.90941         2.92395
   H        5.02091         9.52990         3.78386
   H        5.33716        11.67408         2.57398
   H        3.43480        10.02297        -0.86651
   H        3.14027         7.87900         0.32088
   H        4.30872        13.16633        -1.54773
   H        0.80819         5.58855         4.48627
   H        0.66178         3.24138         5.26379
   H        4.01207         2.21657         2.83212
   H        4.16231         4.54807         2.04743
   H        3.12734        -0.47056         4.59453
   H       -4.24812         8.31601        -1.13783
   H       -4.48462         7.62890        -3.50068
   H       -0.22831         7.63292        -3.91305
   H       -0.00230         8.39436        -1.60566
   H       -0.95028         6.28041        -5.32309
   H       -3.02298        12.55288         1.44705
   H       -3.34339        13.28995         3.74040
   H       -3.11804         9.23237         5.08156
   H       -2.84009         8.48274         2.73817
   H       -2.88158        13.48387         5.61757
   H       -4.59087        10.97281        -0.04091
   H       -0.22206        10.45938        -4.47449
   H       -5.03702        11.34739        -5.43014
   H       -4.68254        10.73708        -7.75004
   H       -3.20172         9.95429        -9.55451
   H       -0.81959         9.52022        -9.10770
   H        0.10346         9.86665        -6.85196
*
