# ORCA input file
# SCF done       -205.427724461724          0.000327779485
! CAM-B3LYP def2-SVP def2/J RIJCOSX Grid4 TightSCF
%maxcore 5000
%tddft
    Mode sTDDFT
    Ethresh 5.0
    maxcore 5000
end

%pal
  nprocs 6
  end
* xyz 0 1
   C       10.42013         2.52917        12.02833
   C        9.70082         2.99200        13.09487
   F       10.33852         3.61200        14.10494
   C        8.30978         2.84770        13.18253
   C        7.64454         2.22168        12.16513
   C        8.33608         1.72601        11.04104
   C        9.75134         1.88043        10.97248
   C       10.46893         1.38209         9.85956
   C        9.78946         0.75741         8.85053
   C        8.37232         0.62199         8.91463
   C        7.65666         1.08437         9.98053
   C        7.89172        -0.04470         7.68767
   O        6.75867        -0.37030         7.41045
   C        9.09230        -0.17792         6.82336
   C       10.25603         0.12162         7.62077
   C       11.52559        -0.35976         7.41435
   C       11.84967        -1.23450         6.35886
   N       12.12496        -1.98464         5.53383
   C       12.60596        -0.11782         8.28393
   N       13.51896         0.06706         8.95521
   C        8.93683        -0.45991         5.49268
   C        9.80690        -0.19502         4.42553
   S       11.09324         0.96631         4.51531
   C       11.57501         0.72716         2.87058
   C       10.71684        -0.19614         2.23509
   C        9.71999        -0.71254         3.11608
   C        8.78986        -1.65910         2.65574
   C        8.83014        -2.04041         1.34348
   F        7.94698        -2.93394         0.87822
   C        9.77609        -1.48685         0.45568
   F        9.75184        -1.85321        -0.83532
   C       10.70508        -0.57855         0.88202
   C       12.70887         1.43847         2.42764
   C       13.50527         1.09360         1.37646
   C       14.64348         1.76168         0.87388
   S       15.48156         0.93804        -0.41240
   C       16.61255         2.24674        -0.61653
   C       16.30297         3.29571         0.25894
   C       15.24325         3.00445         1.12494
   C       14.83299         3.93607         2.21869
   S       15.17394         3.09371         3.84869
   C       15.58938         5.26474         2.20583
   C       15.94767         5.68246         0.78810
   C       16.91580         4.65824         0.20261
   C       17.65083         2.07324        -1.54870
   C       18.75545         2.87008        -1.70262
   C       19.77399         2.62756        -2.62646
   C       20.86481         3.46161        -2.76280
   C       21.97477         3.31965        -3.62248
   C       22.88993         4.33047        -3.52632
   C       22.53892         5.32506        -2.59192
   S       21.02614         4.93569        -1.82344
   C       23.21231         6.49486        -2.26467
   C       24.44003         6.97779        -2.75374
   C       24.80225         8.18568        -2.22364
   C       23.87491         8.71096        -1.29931
   S       22.52853         7.61274        -1.10920
   C       23.95155         9.91598        -0.62152
   C       22.95402        10.34341         0.24536
   C       22.95190        11.53735         0.94120
   C       21.92201        12.00746         1.82824
   C       20.73791        11.37746         2.14238
   C       19.77131        11.90372         3.02119
   N       18.93948        12.26972         3.72464
   C       20.29907        10.13545         1.64473
   N       19.84755         9.13695         1.29566
   C       22.34332        13.30739         2.34863
   C       23.60125        13.63436         1.78660
   C       24.02891        12.54285         0.88467
   O       25.05957        12.50474         0.24047
   C       24.26279        14.80087         2.07817
   C       23.65393        15.69150         2.97000
   C       22.39872        15.35634         3.52718
   C       21.72909        14.17442         3.23120
   S       21.82549        16.59516         4.60326
   C       23.26179        17.53359         4.29277
   C       24.12679        16.95161         3.42913
  Br       23.48333        19.19366         5.13866
   H       11.49123         2.65389        11.99614
   H        7.79542         3.23276        14.04869
   H        6.57286         2.09877        12.21012
   H       11.53876         1.51611         9.82830
   H        6.58438         0.96315        10.01622
   H        7.96307        -0.85858         5.22568
   H        8.04788        -2.08251         3.31216
   H       11.38876        -0.15624         0.16599
   H       12.99397         2.25711         3.06916
   H       13.28836         0.16831         0.86088
   H       13.75146         4.09759         2.17427
   H       14.74860         4.11281         4.59428
   H       16.51481         5.15637         2.77592
   H       14.98251         6.02928         2.69408
   H       15.04664         5.73589         0.17274
   H       16.41576         6.66667         0.79914
   H       17.85000         4.68098         0.77167
   H       17.14201         4.91393        -0.83397
   H       17.57533         1.18794        -2.16847
   H       18.88942         3.72907        -1.06414
   H       19.71821         1.75579        -3.26439
   H       22.06924         2.47723        -4.28478
   H       23.79466         4.38542        -4.10447
   H       25.02362         6.43328        -3.47435
   H       25.70452         8.71471        -2.47374
   H       24.81508        10.54365        -0.78628
   H       22.10780         9.67932         0.37574
   H       25.22027        15.02160         1.63294
   H       20.77390        13.96661         3.68332
   H       25.05998        17.39070         3.12684
*
