# ORCA input file
# SCF done       -215.381711190402          0.000879514579
! CAM-B3LYP def2-SVP def2/J RIJCOSX Grid4 TightSCF
%maxcore 5000
%tddft
    Mode sTDDFT
    Ethresh 5.0
    maxcore 5000
end

%pal
  nprocs 6
  end
* xyz 0 1
   C      -10.82566        -0.75740        -3.84689
   C      -10.46605        -2.06975        -3.70358
   C      -10.80338        -3.08289        -4.62839
   N      -11.04491        -3.95131        -5.33846
   C       -9.68876        -2.61202        -2.65525
   N       -9.05170        -3.13767        -1.85861
   C      -11.57019        -0.20289        -4.97165
   C      -11.64481         1.20541        -4.82168
   C      -12.27667         2.02141        -5.73035
   C      -12.87537         1.41563        -6.83793
   C      -12.80436         0.00735        -6.97877
   C      -12.15828        -0.81461        -6.06314
   S      -13.61551        -0.53140        -8.41482
   C      -14.03360         1.11671        -8.80373
   C      -13.58894         2.02661        -7.90402
  Br      -15.01744         1.47709       -10.35681
   C      -10.97256         1.59220        -3.57904
   O      -10.84823         2.72436        -3.14352
   C      -10.50670         0.34642        -2.95016
   C       -9.94459         0.23234        -1.71058
   C       -9.60020         1.24185        -0.78350
   S       -9.67497         2.95651        -1.06821
   C       -8.96882         3.31858         0.47190
   C       -8.65378         2.14741         1.16572
   C       -9.06546         0.99318         0.48553
   C       -9.05121        -0.39002         1.07639
   F      -10.19885        -1.04416         0.79900
   F       -8.05437        -1.14839         0.60602
   F       -8.96407        -0.38960         2.40616
   C       -7.86800         2.11331         2.44411
   F       -8.63466         1.99067         3.54308
   F       -6.98021         1.11543         2.46293
   F       -7.14849         3.23194         2.63639
   C       -8.89647         4.65461         0.93938
   C       -9.35921         5.71257         0.22952
   N       -9.46453         6.96342         0.74317
   C       -9.71313         8.06095        -0.01023
   S       -9.64364         7.92697        -1.74559
   C       -9.87142         9.64079        -1.88555
   N       -9.92421        10.19070        -3.17230
   O      -10.06786        11.39468        -3.26768
   O       -9.81877         9.41107        -4.10337
   C       -9.98497        10.26777        -0.67816
   C       -9.93058         9.38140         0.42118
   C      -10.13097         9.88289         1.74811
   C      -10.61660         9.23048         2.83528
   C      -10.79921         9.88026         4.07485
   C      -11.31326         9.28686         5.19609
   C      -11.36055         9.81797         6.51274
   C      -11.74224         8.92385         7.46500
   C      -12.03883         7.63917         6.95088
   S      -11.91602         7.63743         5.20889
   C      -12.21146         6.44087         7.61493
   C      -11.99140         6.10383         8.96887
   C      -11.82096         4.76592         9.16932
   C      -11.88435         3.98232         7.98710
   S      -12.38700         4.98457         6.65803
   C      -11.57773         2.63782         7.88015
   C      -11.43456         1.84806         6.73936
   C      -11.31170         2.14656         5.39382
   C      -10.95723         3.30895         4.64650
   C      -10.13323         4.34781         5.03999
   C       -9.75886         5.39084         4.18832
   N       -9.42338         6.24962         3.49586
   C       -9.49762         4.39922         6.29510
   N       -8.97481         4.48254         7.31356
   C      -11.45360         3.12717         3.28410
   C      -11.80116         1.76678         3.11068
   C      -11.65814         1.07591         4.41510
   O      -11.85252        -0.09080         4.65581
   C      -12.28469         1.27866         1.92260
   C      -12.48684         2.19108         0.87756
   C      -12.19722         3.55798         1.08607
   C      -11.66516         4.04294         2.27611
   S      -12.61639         4.51966        -0.29917
   C      -13.17874         3.09351        -1.12677
   C      -13.04174         1.95293        -0.41181
  Br      -13.94748         3.26028        -2.82101
   H      -12.31287         3.08945        -5.58772
   H      -12.13492        -1.88041        -6.21616
   H      -13.75800         3.08469        -7.98420
   H       -9.71553        -0.77303        -1.38401
   H       -8.51819         4.82882         1.93236
   H       -9.69295         5.58758        -0.79312
   H       -9.30771         7.05535         1.75453
   H      -10.13399        11.32900        -0.59010
   H       -9.94360        10.94503         1.84669
   H      -10.89808         8.18825         2.78217
   H      -10.47554        10.90943         4.16108
   H      -11.06308        10.83163         6.71553
   H      -11.79334         9.13654         8.51757
   H      -11.89953         6.85102         9.73617
   H      -11.57477         4.32222        10.11718
   H      -11.46047         2.12247         8.82562
   H      -11.48291         0.77679         6.91747
   H      -12.52691         0.23407         1.80526
   H      -11.48115         5.09634         2.40330
   H      -13.33978         0.98201        -0.76433
*
