# ORCA input file
# SCF done       -188.263242312542          0.000767801164
! CAM-B3LYP def2-SVP def2/J RIJCOSX Grid4 TightSCF
%maxcore 5000
%tddft
    Mode sTDDFT
    Ethresh 5.0
    maxcore 5000
end

%pal
  nprocs 6
  end
* xyz 0 1
   C       -2.53571         3.54841         5.07551
   C       -3.33921         4.16022         5.99983
   C       -3.31019         3.87334         7.38235
   N       -3.33646         3.68592         8.51425
   C       -4.31254         5.14835         5.73424
   N       -5.13058         5.94539         5.62113
   C       -1.55206         2.51130         5.36940
   C       -0.95245         2.09252         4.15558
   C        0.01767         1.12104         4.09833
   C        0.42121         0.53327         5.30115
   C       -0.17965         0.95810         6.51134
   C       -1.16246         1.93892         6.56674
   S        0.46762         0.10528         7.87869
   C        1.52105        -0.79830         6.82264
   C        1.39623        -0.47902         5.51202
  Br        2.68434        -2.07605         7.54891
   C       -1.53086         2.85689         3.04048
   O       -1.25110         2.73511         1.86315
   C       -2.50340         3.78864         3.63939
   C       -3.21499         4.74029         2.96668
   C       -3.21383         5.07287         1.59646
   N       -3.94914         6.09210         1.19940
   C       -3.81993         6.30179        -0.09466
   C       -2.95309         5.41473        -0.78693
   S       -2.28806         4.27277         0.29951
   N       -2.80159         5.64922        -2.08539
   C       -3.50238         6.67779        -2.46014
   S       -4.46352         7.46871        -1.18118
   C       -3.47515         7.19217        -3.77706
   O       -4.17951         8.31030        -4.09324
   C       -2.76026         6.78110        -4.88768
   C       -1.82617         5.76931        -5.41583
   O       -1.32692         4.80212        -4.91563
   N       -1.61602         6.18723        -6.73172
   C       -2.29726         7.33886        -7.11627
   O       -2.24088         7.85477        -8.20171
   C       -3.04054         7.71217        -5.90945
   C       -3.92141         8.65017        -5.38727
   C       -4.46332         9.79523        -6.00134
   C       -5.39385        10.63218        -5.45049
   C       -5.81908        11.79419        -6.10592
   C       -6.79970        12.65572        -5.67351
   C       -7.16351        13.87313        -6.30038
   C       -8.17700        14.53767        -5.68163
   C       -8.68828        13.86751        -4.54608
   S       -7.80954        12.38467        -4.26563
   C       -9.75735        14.26903        -3.76236
   C      -10.49364        15.46912        -3.88570
   C      -11.51903        15.57630        -2.99592
   C      -11.65690        14.45982        -2.13786
   S      -10.40468        13.28691        -2.46944
   C      -12.63447        14.29682        -1.17891
   C      -12.80581        13.14335        -0.41678
   C      -13.74612        12.93220         0.56518
   C      -14.60178        13.84310         1.27794
   C      -14.34857        15.16563         1.55764
   C      -15.21385        15.98930         2.30405
   N      -15.89231        16.71014         2.88638
   C      -13.15049        15.83007         1.22740
   N      -12.17982        16.40834         1.02107
   C      -15.69322        13.05706         1.85083
   C      -15.40055        11.68097         1.67566
   C      -14.13342        11.54695         0.92542
   O      -13.55709        10.52685         0.61967
   C      -16.22866        10.68716         2.13593
   C      -17.40666        11.06857         2.78864
   C      -17.69516        12.44451         2.94624
   C      -16.85226        13.45131         2.48913
   S      -19.20697        12.69141         3.76567
   C      -19.42649        10.96583         3.88826
   C      -18.42169        10.24070         3.34244
  Br      -20.96453        10.28612         4.71929
   H        0.45140         0.82654         3.15565
   H       -1.58504         2.22601         7.51477
   H        1.96745        -0.93747         4.72557
   H       -3.88050         5.38233         3.53116
   H       -1.00802         5.68359        -7.36212
   H       -4.08232         9.98965        -6.99437
   H       -5.81148        10.40090        -4.47945
   H       -5.32649        12.05026        -7.03547
   H       -6.65851        14.21888        -7.18468
   H       -8.57853        15.47556        -6.01916
   H      -10.24857        16.21847        -4.61606
   H      -12.18481        16.41789        -2.92916
   H      -13.33404        15.11336        -1.06912
   H      -12.21134        12.27395        -0.68089
   H      -15.97871         9.64723         1.99605
   H      -17.11680        14.48658         2.62719
   H      -18.39561         9.16640         3.32903
*
