# ORCA input file
# SCF done       -174.583473937459          0.000760932444
! CAM-B3LYP def2-SVP def2/J RIJCOSX Grid4 TightSCF
%maxcore 5000
%tddft
    Mode sTDDFT
    Ethresh 5.0
    maxcore 5000
end

%pal
  nprocs 6
  end
* xyz 0 1
   C       -8.86295         3.93936         1.27173
   C       -8.55997         4.64052         2.40377
   C       -9.52060         5.21618         3.26460
   N      -10.25348         5.70435         3.99997
   C       -7.25068         4.89208         2.87118
   N       -6.22198         5.13978         3.31518
   C      -10.19565         3.67113         0.75421
   C      -10.09331         2.93101        -0.45193
   C      -11.19547         2.51611        -1.16139
   C      -12.45866         2.84554        -0.66125
   C      -12.55068         3.59923         0.53549
   C      -11.43979         4.01739         1.25413
   S      -14.20311         3.90621         0.97077
   C      -14.73965         3.02226        -0.43235
   C      -13.73663         2.52199        -1.19204
  Br      -16.57462         2.83697        -0.74276
   C       -8.67314         2.70080        -0.77055
   O       -8.21640         2.12859        -1.73118
   C       -7.90680         3.32469         0.35165
   C       -6.57110         3.25577         0.43012
   C       -5.78232         2.57990        -0.61900
   N       -5.53632         1.28582        -0.44904
   C       -4.86664         0.68676        -1.42326
   C       -4.43483         1.35768        -2.55011
   C       -4.69790         2.73348        -2.60820
   N       -5.37338         3.33275        -1.62150
   C       -4.25938         3.53888        -3.72095
   C       -4.43135         4.87455        -3.74966
   C       -3.99907         5.77046        -4.77316
   S       -3.63826         7.40073        -4.27543
   C       -3.01402         7.78030        -5.82819
   C       -3.08135         6.73972        -6.69781
   C       -2.62763         6.81947        -8.11774
   C       -3.67543         5.57461        -6.11300
   C       -3.96791         4.41686        -6.91082
   C       -5.04632         3.61011        -6.75142
   C       -5.38289         2.49665        -7.56360
   C       -4.56128         1.89864        -8.47892
   C       -4.86929         0.81339        -9.31605
   C       -6.05813         0.14413        -9.50492
   C       -6.22949        -0.92694       -10.41733
   C       -7.49646        -1.42202       -10.48377
   C       -8.40647        -0.77112        -9.62347
   S       -7.59005         0.48074        -8.71754
   C       -9.75922        -1.02102        -9.47786
   C      -10.54055        -1.96732       -10.17485
   C      -11.85770        -1.95380        -9.83079
   C      -12.19628        -0.99063        -8.84691
   S      -10.75591        -0.11977        -8.35949
   C      -13.44330        -0.86377        -8.28149
   C      -13.88630         0.05560        -7.31363
   S      -15.05553        -0.49873        -6.14806
   C      -15.00074         0.96761        -5.22466
   C      -14.12755         1.87905        -5.82175
   C      -13.53392         1.38784        -7.03599
   C      -12.83302         2.29112        -7.86033
   F      -12.48465         1.93916        -9.10633
   C      -12.56356         3.56594        -7.43113
   F      -11.89554         4.42736        -8.21123
   C      -13.01282         4.00042        -6.16357
   F      -12.69672         5.23598        -5.75223
   C      -13.79601         3.18575        -5.39122
   F      -14.24820         3.64643        -4.20906
   C      -15.81637         1.13460        -4.06111
   C      -16.56238         0.17145        -3.51636
   H      -11.08454         1.95176        -2.07408
   H      -11.56294         4.58325         2.16250
   H      -13.88970         1.94878        -2.08766
   H       -6.01196         3.68476         1.24944
   H       -4.68050        -0.37000        -1.27849
   H       -3.91031         0.85531        -3.34673
   H       -3.77299         3.01644        -4.53178
   H       -4.86967         5.33475        -2.87274
   H       -2.63014         8.76431        -6.01414
   H       -2.24858         7.81445        -8.33572
   H       -3.45387         6.60351        -8.79383
   H       -1.83362         6.09729        -8.30679
   H       -3.31438         4.26594        -7.75902
   H       -5.74681         3.84683        -5.96164
   H       -6.37095         2.08977        -7.40612
   H       -3.55089         2.27385        -8.57722
   H       -4.05439         0.44839        -9.93060
   H       -5.40621        -1.29410       -11.00500
   H       -7.79731        -2.22813       -11.12807
   H      -10.11510        -2.62618       -10.91013
   H      -12.60506        -2.59800       -10.25901
   H      -14.14723        -1.65006        -8.52751
   H      -15.82515         2.12403        -3.62846
   H      -16.58186        -0.82595        -3.92431
   H      -17.17363         0.36143        -2.65302
*
