# ORCA input file
# SCF done       -178.241773680276          0.000647682274
! CAM-B3LYP def2-SVP def2/J RIJCOSX Grid4 TightSCF
%maxcore 5000
%tddft
    Mode sTDDFT
    Ethresh 5.0
    maxcore 5000
end

%pal
  nprocs 6
  end
* xyz 0 1
   C       -1.48799        11.87545         2.22129
   C       -1.52499        12.06797         3.57837
   C       -0.63984        12.91176         4.28100
   N        0.04783        13.59631         4.89328
   C       -2.38394        11.35752         4.43700
   N       -3.00362        10.74721         5.18825
   C       -0.46548        12.35818         1.30887
   C       -0.62615        11.69610         0.06541
   C        0.21545        11.91121        -0.99875
   C        1.26211        12.82393        -0.82829
   C        1.40833        13.48748         0.41529
   C        0.55891        13.26835         1.49236
   S        2.76334        14.57280         0.40464
   C        3.11647        14.12418        -1.24284
   C        2.26084        13.21027        -1.76179
  Br        4.57693        14.90427        -2.12063
   C       -1.78576        10.78464         0.13003
   O       -2.18053        10.05659        -0.75107
   C       -2.38558        11.01586         1.47192
   C       -3.66112        10.71528         1.84701
   C       -4.55232         9.80524         1.22999
   S       -6.28060         9.97267         1.53406
   C       -6.64657         8.54226         0.62418
   C       -5.47185         7.97870         0.12399
   C       -4.31127         8.68991         0.46995
   N       -5.41167         6.84068        -0.72161
   O       -6.43520         6.51031        -1.29347
   O       -4.34151         6.28114        -0.83143
   N       -7.91323         8.06472         0.60816
   C       -8.28777         6.73754         0.51055
   S       -9.74532         6.34831        -0.33922
   C       -9.44819         4.66974        -0.04566
   N      -10.39983         3.75284        -0.52442
   O      -10.19376         2.57180        -0.34108
   O      -11.36954         4.22501        -1.09039
   C       -8.29545         4.43128         0.64939
   C       -7.62180         5.61741         1.00065
   C       -6.41063         5.63117         1.79699
   C       -6.14296         6.55029         2.73814
   C       -4.91816         6.59819         3.48165
   C       -4.61617         7.50727         4.42163
   C       -5.53320         8.57872         4.90975
   C       -3.29927         7.43115         5.15732
   N       -3.50981         7.06707         6.54311
   C       -3.92701         5.85288         6.90120
   C       -4.23745         5.48102         8.17947
   C       -4.60397         4.18701         8.57337
   C       -5.01142         3.09551         7.83980
   C       -5.55560         2.92172         6.52217
   C       -6.27204         3.83939         5.78250
   C       -6.85946         3.57053         4.53540
   N       -7.33970         3.43460         3.49960
   C       -6.56620         5.13700         6.22569
   N       -6.84569         6.20172         6.55810
   C       -5.46311         1.50083         6.18800
   C       -5.07337         0.78908         7.34813
   C       -4.85141         1.75373         8.44776
   O       -4.56200         1.50313         9.59772
   C       -4.92856        -0.57540         7.36251
   C       -5.16691        -1.26942         6.17011
   C       -5.54164        -0.54771         5.01333
   C       -5.69873         0.83368         5.00260
   S       -5.77144        -1.59942         3.64906
   C       -5.37089        -2.97668         4.63949
   C       -5.07862        -2.66723         5.92485
  Br       -5.37109        -4.69307         3.88212
   H        0.07463        11.38809        -1.93141
   H        0.70411        13.79850         2.41904
   H        2.33133        12.82347        -2.76185
   H       -4.07183        11.24149         2.70204
   H       -3.33512         8.37164         0.15424
   H       -8.66171         8.73890         0.70402
   H       -7.96841         3.44995         0.94117
   H       -5.72284         4.81642         1.61871
   H       -6.88815         7.29542         2.97621
   H       -4.18544         5.84472         3.21892
   H       -6.18460         8.94980         4.12382
   H       -4.96234         9.41180         5.31108
   H       -6.16588         8.17294         5.70172
   H       -2.80616         8.40631         5.13741
   H       -2.64322         6.68935         4.69249
   H       -3.60796         7.81852         7.21039
   H       -3.91326         5.11522         6.10947
   H       -4.12265         6.21671         8.96373
   H       -4.47951         3.96538         9.62951
   H       -4.64050        -1.09422         8.26315
   H       -5.98226         1.34085         4.09536
   H       -4.81044        -3.39306         6.67057
*
