# ORCA input file
# SCF done       -179.585126916107          0.000603088720
! CAM-B3LYP def2-SVP def2/J RIJCOSX Grid4 TightSCF
%maxcore 5000
%tddft
    Mode sTDDFT
    Ethresh 5.0
    maxcore 5000
end

%pal
  nprocs 6
  end
* xyz 0 1
   C       -4.43476        -0.74605        -3.21020
   C       -5.32707        -1.18760        -4.15374
   C       -5.16253        -2.36937        -4.90457
   N       -5.08661        -3.32512        -5.53627
   C       -6.50134        -0.50282        -4.53030
   N       -7.45219         0.01545        -4.91332
   C       -3.15110        -1.35947        -2.89550
   C       -2.46681        -0.52608        -1.97740
   C       -1.22196        -0.83378        -1.48651
   C       -0.62080        -2.01820        -1.92709
   C       -1.31303        -2.84453        -2.84364
   C       -2.57420        -2.53503        -3.33771
   S       -0.39253        -4.26186        -3.24842
   C        0.89286        -3.73133        -2.19696
   C        0.64751        -2.55429        -1.57354
  Br        2.43668        -4.78179        -2.01985
   C       -3.31138         0.64100        -1.64801
   O       -3.06212         1.49650        -0.82092
   C       -4.55146         0.46694        -2.42580
   C       -5.70966         1.17929        -2.25000
   C       -5.88558         2.45753        -1.68833
   S       -7.44123         2.78483        -0.95669
   C       -7.00446         4.43214        -0.63800
   C       -5.73442         4.71375        -1.12245
   C       -5.10097         3.60929        -1.71346
   C       -3.77797         3.73168        -2.38200
   C       -3.47187         5.18522        -2.72412
   C       -3.63828         6.05424        -1.46834
   N       -3.18294         7.42571        -1.61178
   C       -5.11487         6.07474        -1.06436
   C       -7.90083         5.32870         0.01651
   C       -9.10108         4.94651         0.49731
   C      -10.10410         5.74657         1.14677
   C      -10.37640         7.04985         0.98597
   C       -9.63898         7.96712         0.06387
   C      -11.52431         7.71618         1.71683
   N      -12.32936         6.82201         2.50316
   C      -12.38942         6.76148         3.84925
   C      -11.93288         7.68478         4.73961
   C      -12.06047         7.51321         6.12867
   C      -11.74335         8.46230         7.06550
   C      -11.82286         8.33878         8.47210
   C      -11.48977         9.46914         9.15553
   C      -11.14307        10.55921         8.32647
   S      -11.20952        10.09055         6.64737
   C      -10.83075        11.85000         8.71642
   C      -10.72585        12.35973        10.02492
   C      -10.45205        13.69532        10.07545
   C      -10.33671        14.31389         8.80961
   S      -10.55460        13.12774         7.54462
   C      -10.11582        15.65826         8.59293
   C      -10.04842        16.32149         7.37074
   S      -10.19925        15.52414         5.83079
   C      -10.02747        16.99040         4.95590
   C       -9.86069        18.07425         5.78155
   C       -9.86835        17.71235         7.17607
   C       -9.74505        18.70355         8.14399
   C       -9.59556        20.02360         7.76654
   N       -9.64146        21.03281         8.77355
   O       -9.39223        20.70028         9.91705
   O       -9.97964        22.14987         8.43026
   C       -9.53409        20.37464         6.38980
   N       -9.17431        21.71727         5.96931
   O       -8.16342        22.17510         6.44705
   O       -9.84878        22.22358         5.10544
   C       -9.67790        19.43014         5.41675
   H       -0.72536        -0.18243        -0.78448
   H       -3.06575        -3.19977        -4.02832
   H        1.33106        -2.08334        -0.89096
   H       -6.63411         0.69294        -2.54251
   H       -3.74799         3.09766        -3.27267
   H       -3.01238         3.35239        -1.69538
   H       -4.15007         5.54023        -3.50537
   H       -2.44953         5.26396        -3.10102
   H       -3.05332         5.60680        -0.65633
   H       -3.64230         7.87039        -2.40054
   H       -2.18378         7.45466        -1.78034
   H       -5.65454         6.74279        -1.74504
   H       -5.20390         6.49457        -0.06107
   H       -7.54542         6.33893         0.14226
   H       -9.35309         3.89454         0.41657
   H      -10.73882         5.17377         1.81198
   H       -9.27879         7.42777        -0.80918
   H       -8.78083         8.40812         0.57139
   H      -10.28265         8.78130        -0.26314
   H      -12.16627         8.20804         0.97305
   H      -11.11985         8.49681         2.36459
   H      -12.76334         6.07450         1.98478
   H      -12.90588         5.88969         4.23113
   H      -11.46905         8.60085         4.40502
   H      -12.44389         6.56915         6.49400
   H      -12.12647         7.41631         8.93528
   H      -11.49995         9.55357        10.22706
   H      -10.85308        11.73745        10.89235
   H      -10.34001        14.25878        10.98465
   H      -10.00027        16.26819         9.47842
   H      -10.06487        16.97722         3.88568
   H       -9.79380        18.47813         9.19826
   H       -9.62547        19.70816         4.37551
*
