# ORCA input file
# SCF done       -210.372122740179          0.000953736444
! CAM-B3LYP def2-SVP def2/J RIJCOSX Grid4 TightSCF
%maxcore 5000
%tddft
    Mode sTDDFT
    Ethresh 5.0
    maxcore 5000
end

%pal
  nprocs 6
  end
* xyz 0 1
   C       -3.65515       -13.65817         5.66082
   C       -2.89776       -14.77609         5.44880
   F       -2.82886       -15.73128         6.38717
   C       -2.18326       -14.94003         4.24624
   F       -1.44938       -16.04778         4.06351
   C       -2.23500       -13.98298         3.27153
   C       -3.00706       -12.82083         3.45975
   C       -3.73059       -12.65404         4.67535
   C       -4.51589       -11.49621         4.88515
   C       -4.57699       -10.53969         3.90784
   C       -3.85427       -10.71605         2.69503
   C       -3.08496       -11.81854         2.46576
   C       -4.11088        -9.56408         1.80314
   O       -3.64323        -9.39363         0.69486
   C       -5.06357        -8.70385         2.53361
   C       -5.29593        -9.26838         3.83566
   C       -6.01255        -8.70430         4.86747
   C       -6.63145        -7.44360         4.83015
   N       -7.15112        -6.41924         4.88763
   C       -6.18709        -9.30723         6.12890
   N       -6.36609        -9.74615         7.17522
   C       -5.67834        -7.58842         1.99947
   C       -5.37763        -7.02367         0.76532
   C       -6.06816        -5.94791         0.24370
   C       -5.77956        -5.26519        -0.95956
   C       -6.62685        -4.23379        -1.23167
   C       -7.62529        -4.04869        -0.24967
   S       -7.46783        -5.24300         1.01226
   C       -8.59892        -3.06704        -0.22257
   C       -8.89331        -2.12498        -1.23318
   C       -9.89482        -1.26203        -0.91555
   C      -10.43477        -1.45879         0.38068
   S       -9.65162        -2.83656         1.15341
   C      -11.39391        -0.68533         0.96464
   N      -11.85744        -0.85600         2.22669
   C      -12.75171        -0.07163         2.88738
   S      -13.66696        -0.78500         4.18311
   C      -14.56495         0.69117         4.33984
   N      -15.56754         0.74934         5.32064
   O      -16.18583         1.79084         5.42930
   O      -15.74955        -0.26016         5.97517
   C      -14.18248         1.66187         3.45794
   C      -13.12067         1.26012         2.61876
   C      -12.44642         2.11144         1.68545
   C      -12.96708         3.23985         1.13318
   C      -12.34584         4.05189         0.15803
   C      -11.18388         3.83929        -0.54309
   C      -10.66477         4.69877        -1.54811
   C       -9.51304         4.26784        -2.13408
   C       -9.03879         3.04234        -1.61742
   S      -10.12269         2.44845        -0.38473
   C       -7.87643         2.34976        -1.89795
   C       -6.81703         2.64417        -2.78004
   C       -5.76004         1.78927        -2.66486
   C       -5.90690         0.80239        -1.65787
   S       -7.49537         0.92065        -0.95943
   C       -4.95484        -0.13813        -1.29755
   C       -4.93547        -1.03260        -0.22981
   C       -5.65829        -1.11112         0.94913
   C       -5.67733        -2.40297         1.67949
   O       -4.99980        -3.38190         1.43833
   C       -6.73371        -2.26880         2.70561
   C       -7.22752        -3.19345         3.57974
   C       -8.33477        -2.84718         4.39056
   C       -8.89977        -1.54471         4.28838
   C      -10.01823        -1.22014         5.08049
   C      -10.54689        -2.14581         5.93756
   C       -9.98486        -3.43328         6.03777
   C       -8.89853        -3.77916         5.28202
   F      -10.53287        -4.31743         6.88200
   F      -11.61495        -1.82695         6.68387
   C       -8.33751        -0.59260         3.40612
   C       -7.26719        -0.95005         2.63564
   C       -6.47884        -0.18892         1.67001
   C       -6.42619         1.18950         1.62301
   C       -5.41428         1.89687         0.94937
   N       -4.59474         2.50137         0.41844
   C       -7.33377         2.03327         2.28723
   N       -8.08661         2.76751         2.75085
   H       -4.19591       -13.54779         6.58783
   H       -1.68211       -14.12378         2.35597
   H       -5.05458       -11.40196         5.81408
   H       -2.54550       -11.92811         1.53723
   H       -6.46569        -7.11299         2.57229
   H       -4.55976        -7.43018         0.18826
   H       -4.94426        -5.54914        -1.57405
   H       -6.54400        -3.59002        -2.08891
   H       -8.36024        -2.11482        -2.16609
   H      -10.25479        -0.47746        -1.55560
   H      -11.83526         0.11258         0.38882
   H      -11.56039        -1.70197         2.70333
   H      -14.62968         2.63880         3.45427
   H      -11.43216         1.83123         1.44952
   H      -13.96268         3.54679         1.42300
   H      -12.87908         4.95497        -0.11176
   H      -11.16336         5.61746        -1.80284
   H       -8.98715         4.79904        -2.90665
   H       -6.85162         3.48069        -3.45423
   H       -4.85112         1.87049        -3.23347
   H       -4.11305        -0.20347        -1.97670
   H       -4.24160        -1.86223        -0.34140
   H       -6.79933        -4.18014         3.66132
   H      -10.44824        -0.23131         5.03014
   H       -8.47070        -4.76655         5.36397
   H       -8.77437         0.39208         3.35511
*
