# ORCA input file
# SCF done       -156.197287706109          0.000777006217
! CAM-B3LYP def2-SVP def2/J RIJCOSX Grid4 TightSCF
%maxcore 5000
%tddft
    Mode sTDDFT
    Ethresh 5.0
    maxcore 5000
end

%pal
  nprocs 6
  end
* xyz 0 1
   C       14.66069         0.78183         6.02219
   C       13.62817         0.99548         6.85462
   C       13.64457         1.02309         8.28997
   C       12.43958         1.25471         8.85552
   C       11.37606         1.42938         7.92669
   S       11.97634         1.27634         6.28352
   C       10.05451         1.67606         8.19848
   C        9.41051         1.72831         9.46298
   C        8.06544         1.87928         9.38260
   C        7.54948         1.93098         8.05493
   S        8.88142         1.90308         6.91382
   C        6.21705         1.98604         7.74848
   C        5.53942         1.93954         6.50771
   S        3.98749         2.76313         6.48401
   C        3.81995         2.48960         4.79806
   C        4.85381         1.78819         4.26851
   C        4.93156         1.40231         2.82832
   C        5.83719         1.42352         5.24359
   C        6.92025         0.54898         4.90369
   C        7.56603        -0.27710         5.75600
   C        8.73818        -1.00919         5.40226
   C        9.55024        -1.58301         6.31485
   C       10.80990        -2.17245         5.97851
   C       11.74679        -2.56789         6.85585
   C       11.61967        -2.42095         8.33908
   C       13.02955        -3.19483         6.36298
   N       14.18845        -2.44562         6.78647
   C       15.03522        -2.85663         7.74323
   C       15.96751        -2.05574         8.32190
   C       16.98346        -2.42861         9.23752
   S       18.34271        -1.34063         9.33049
   C       19.21821        -2.43692        10.33609
   C       18.53090        -3.57006        10.59757
   C       19.06626        -4.67151        11.45182
   C       17.21054        -3.57121        10.01853
   C       16.28913        -4.59745        10.35439
   C       14.92669        -4.51718        10.38472
   C       14.11489        -5.60026        10.75542
   C       12.74407        -5.55641        10.79403
   C       11.98582        -6.66402        11.18510
   C       10.60935        -6.72017        11.23323
   C        9.81604        -7.83185        11.69857
   C       10.26502        -9.06172        12.11925
   C        9.42491       -10.10471        12.55626
   N        8.79991       -10.99664        12.92250
   C       11.61033        -9.47657        12.16969
   N       12.67535        -9.90366        12.24248
   C        8.41202        -7.43021        11.64197
   C        8.33746        -6.12017        11.11083
   C        9.70453        -5.63447        10.82436
   O        9.98873        -4.55477        10.33533
   C        7.14678        -5.46205        10.92732
   C        5.97018        -6.12587        11.29305
   C        6.05538        -7.43059        11.83015
   C        7.26086        -8.09887        12.01098
   S        4.48492        -8.06515        12.22237
   C        3.74641        -6.58743        11.66499
   C        4.62680        -5.66595        11.20875
  Br        1.88066        -6.39968        11.74055
   H       15.66066         0.65113         6.39800
   H       14.53302         0.78648         4.95508
   H       14.55896         0.87113         8.83581
   H       12.26909         1.31158         9.91613
   H        9.95644         1.62759        10.38372
   H        7.40638         1.91690        10.23254
   H        5.56557         2.16377         8.59831
   H        2.95236         2.86427         4.29079
   H        4.06371         1.77642         2.29123
   H        4.96670         0.31846         2.72544
   H        5.82908         1.81774         2.37088
   H        7.22886         0.56310         3.86660
   H        7.21878        -0.37119         6.77606
   H        9.02992        -1.00012         4.35964
   H        9.26816        -1.56260         7.35814
   H       11.00808        -2.28108         4.91895
   H       11.21495        -1.44558         8.60348
   H       12.59110        -2.52649         8.81769
   H       10.95373        -3.18032         8.75086
   H       13.02002        -3.24828         5.26891
   H       13.11883        -4.21134         6.75994
   H       14.19885        -1.46186         6.53782
   H       14.97547        -3.90772         7.98858
   H       16.02390        -1.03058         7.98072
   H       20.19825        -2.16420        10.67401
   H       20.08286        -4.44265        11.76095
   H       19.07527        -5.61277        10.90311
   H       18.45283        -4.79960        12.34308
   H       16.73321        -5.52165        10.70387
   H       14.43909        -3.58150        10.14984
   H       14.60753        -6.53250        11.00795
   H       12.23021        -4.64642        10.52350
   H       12.53994        -7.54263        11.48946
   H        7.12108        -4.46457        10.51676
   H        7.27124        -9.09358        12.42357
   H        4.34316        -4.70148        10.82843
*
