# ORCA input file
# SCF done       -152.352451808206          0.000882543395
! CAM-B3LYP def2-SVP def2/J RIJCOSX Grid4 TightSCF
%maxcore 5000
%tddft
    Mode sTDDFT
    Ethresh 5.0
    maxcore 5000
end

%pal
  nprocs 6
  end
* xyz 0 1
   C       13.89529        -8.03370        -6.07901
   C       13.31866        -7.30764        -5.11341
   C       13.91732        -6.27340        -4.31598
   C       13.08724        -5.71528        -3.41085
   C       11.76764        -6.25765        -3.41223
   S       11.62778        -7.51142        -4.62653
   C       10.72040        -5.89176        -2.60670
   C       10.70312        -4.91397        -1.57700
   C        9.50706        -4.78449        -0.95622
   C        8.49152        -5.66297        -1.44132
   S        9.13932        -6.64458        -2.74859
   C        7.20318        -5.65458        -1.00295
   N        6.18288        -6.49009        -1.36506
   C        6.23299        -7.79118        -1.72204
   S        7.61884        -8.79453        -1.42552
   C        6.68044       -10.20051        -1.85466
   N        7.22065       -11.45688        -1.67073
   O        6.43877       -12.41231        -1.70435
   O        8.41416       -11.55003        -1.42847
   C        5.40078        -9.89199        -2.25095
   C        5.11486        -8.52410        -2.18161
   C        3.83439        -7.93230        -2.43867
   C        2.70332        -8.64135        -2.63389
   C        1.41388        -8.06377        -2.82255
   S        1.26813        -6.34274        -3.12116
   C       -0.44906        -6.43498        -3.22821
   C       -0.87809        -7.70161        -3.04423
   C        0.15801        -8.64380        -2.80267
   C       -0.37898        -9.98420        -2.61031
   C       -1.71962       -10.03617        -2.73990
   S       -2.53836        -8.44010        -3.00792
   O       -3.06549        -8.41138        -4.37006
   N        0.46633       -11.03314        -2.30806
   C        0.24144       -12.37042        -2.38624
   S       -1.19540       -13.03948        -3.08121
   C       -0.52694       -14.63472        -2.92232
   N       -1.31345       -15.71129        -3.33402
   O       -0.84974       -16.83160        -3.21939
   O       -2.41787       -15.44380        -3.77896
   C        0.72560       -14.63874        -2.37163
   C        1.18088       -13.35155        -2.03475
   C        2.47000       -13.15093        -1.41482
   C        2.82865       -12.14474        -0.60151
   N        4.07751       -12.06056        -0.03538
   C        4.55636       -10.96135         0.58142
   S        3.67998        -9.46161         0.55025
   C        5.05264        -8.66254         1.26327
   N        5.04965        -7.28834         1.28060
   O        4.11047        -6.72167         0.71149
   O        6.00039        -6.69904         1.77982
   C        6.08278        -9.52773         1.56162
   C        5.81578       -10.84729         1.19017
   C        6.71250       -11.97705         1.36621
   C        8.01866       -11.87483         1.58122
   H       14.92668        -7.87753        -6.34200
   H       13.35484        -8.79026        -6.61747
   H       14.94713        -5.99867        -4.46021
   H       13.36730        -4.92932        -2.73244
   H       11.57853        -4.34252        -1.32735
   H        9.30453        -4.10167        -0.15101
   H        6.91367        -4.88738        -0.29855
   H        5.24808        -6.13748        -1.17181
   H        4.72171       -10.65267        -2.58880
   H        3.76757        -6.85378        -2.42742
   H        2.76666        -9.71938        -2.65553
   H       -1.02050        -5.55199        -3.42936
   H       -2.34763       -10.89624        -2.61832
   H        1.42144       -10.77322        -2.10051
   H        1.28196       -15.54253        -2.20177
   H        3.19197       -13.93409        -1.60461
   H        2.14871       -11.36593        -0.28455
   H        4.76385       -12.75982        -0.31128
   H        6.99579        -9.18854         2.01474
   H        6.25279       -12.95427         1.30572
   H        8.52555       -10.92637         1.61643
   H        8.63258       -12.74892         1.69995
*
