# ORCA input file
# SCF done       -162.468160748526          0.000703476122
! CAM-B3LYP def2-SVP def2/J RIJCOSX Grid4 TightSCF
%maxcore 5000
%tddft
    Mode sTDDFT
    Ethresh 5.0
    maxcore 5000
end

%pal
  nprocs 6
  end
* xyz 0 1
   C        3.20383        -5.05563        10.52538
   C        4.43383        -5.39174        10.01246
   N        4.70257        -6.47985         9.28778
   C        3.75093        -7.35208         9.00238
   C        2.42901        -7.12757         9.48321
   C        2.15650        -5.94897        10.25640
   N        0.87431        -5.88456        10.62357
   S        0.10634        -7.17090        10.04874
   N        1.35056        -7.88299         9.31105
   C        4.04205        -8.50081         8.20866
   S        2.80925        -9.64107         7.84338
   C        3.85319       -10.60496         6.85116
   C        5.15440       -10.07354         6.84036
   C        5.25163        -8.86310         7.59944
   C        6.46856        -8.16013         7.67515
   C        7.55977        -8.66756         7.03337
   F        8.73534        -8.02095         7.08393
   C        7.48624        -9.88901         6.32607
   F        8.59762       -10.37634         5.74869
   C        6.31703       -10.58700         6.22793
   C        3.25400       -11.71997         6.20136
   C        3.74601       -12.44684         5.17375
   C        3.08872       -13.54597         4.52025
   C        2.16536       -14.38888         5.00801
   C        1.66634       -14.41321         6.41781
   C        1.53947       -15.46299         4.13945
   N        1.90373       -15.40323         2.74934
   C        2.93866       -16.05666         2.18241
   C        3.57573       -17.15655         2.67544
   C        4.65933       -17.80943         2.05677
   C        5.50872       -17.35033         1.08063
   C        6.56824       -18.09358         0.50557
   C        7.33764       -17.39740        -0.37709
   C        6.94096       -16.05275        -0.54462
   S        5.53358       -15.71341         0.42386
   C        7.53356       -15.07732        -1.32933
   C        8.66047       -15.20330        -2.16646
   C        9.00516       -14.03404        -2.77746
   C        8.18740       -12.92934        -2.43447
   S        6.96222       -13.42394        -1.31804
   C        8.30495       -11.67824        -3.03305
   C        7.58531       -10.50875        -2.85668
   C        6.79606       -10.07888        -1.79156
   C        5.89438        -8.95921        -1.83868
   C        5.46471        -8.28819        -2.96131
   C        4.56452        -7.20667        -2.93790
   N        3.83421        -6.32017        -2.98252
   C        5.82488        -8.60391        -4.28588
   N        6.04149        -8.80361        -5.39698
   C        5.42818        -8.69940        -0.47635
   C        6.00804        -9.66265         0.38271
   C        6.89342       -10.54223        -0.41443
   O        7.60890       -11.42887         0.03177
   C        5.76855        -9.68932         1.73298
   C        4.91112        -8.71649         2.26380
   C        4.34118        -7.75823         1.39777
   C        4.58437        -7.73126         0.02837
   S        3.32599        -6.63908         2.25966
   C        3.67832        -7.46722         3.75112
   C        4.50945        -8.52653         3.61579
  Br        2.90692        -6.84983         5.34911
   H        3.04011        -4.16095        11.10097
   H        5.29057        -4.75293        10.18062
   H        6.51676        -7.24294         8.23749
   H        6.31582       -11.52951         5.70808
   H        2.25117       -11.92264         6.54688
   H        4.68324       -12.16172         4.72013
   H        3.43403       -13.70932         3.50600
   H        2.43425       -14.06768         7.10513
   H        1.37412       -15.42477         6.69508
   H        0.78963       -13.77524         6.53235
   H        0.44914       -15.36662         4.21329
   H        1.80535       -16.44556         4.53617
   H        1.55753       -14.59309         2.25829
   H        3.20616       -15.69298         1.20051
   H        3.22376       -17.60892         3.59117
   H        4.88926       -18.79949         2.43168
   H        6.73228       -19.12390         0.76915
   H        8.18844       -17.80513        -0.89184
   H        9.18360       -16.13366        -2.29567
   H        9.83121       -13.92683        -3.45832
   H        9.03260       -11.65353        -3.83691
   H        7.68791        -9.79928        -3.66987
   H        6.23260       -10.43080         2.36431
   H        4.12992        -6.97390        -0.58802
   H        4.83220        -9.14530         4.43294
*
