# ORCA input file
# SCF done       -229.499747971638          0.000942591782
! CAM-B3LYP def2-SVP def2/J RIJCOSX Grid4 TightSCF
%maxcore 5000
%tddft
    Mode sTDDFT
    Ethresh 5.0
    maxcore 5000
end

%pal
  nprocs 6
  end
* xyz 0 1
   C       -2.03581        -0.89674        -8.22408
   S       -0.95958        -2.20827        -8.20451
   C       -1.95754        -3.11584        -7.11934
   C       -3.15558        -2.41811        -6.85578
   C       -3.18896        -1.13363        -7.49639
   C       -4.32818        -0.31158        -7.36406
   C       -5.39818        -0.74857        -6.63245
   N       -6.61175         0.05103        -6.67170
   O       -6.48515         1.24417        -6.55164
   O       -7.63523        -0.54291        -6.91149
   C       -5.37048        -2.02466        -6.00944
   N       -6.40241        -2.44405        -5.09501
   O       -7.03422        -1.57642        -4.53927
   O       -6.50892        -3.63532        -4.88480
   C       -4.28212        -2.85027        -6.14755
   C       -1.58452        -4.37699        -6.58959
   C       -0.92156        -5.43748        -7.20410
   N       -0.29854        -5.44165        -8.44884
   O       -0.03323        -6.51104        -8.96281
   O       -0.03425        -4.35390        -8.96369
   C       -1.03450        -6.60923        -6.38182
   C       -1.73740        -6.29307        -5.26320
   C       -2.05385        -4.89596        -5.29913
   C       -2.44389        -4.12236        -4.21534
   C       -2.00294        -2.79843        -3.93818
   C       -2.32829        -2.48409        -2.64626
   C       -3.07499        -3.55664        -2.08085
   N       -3.60475        -3.51784        -0.78089
   O       -3.40853        -2.50970        -0.12655
   O       -4.21417        -4.49398        -0.36729
   C       -3.21603        -4.57084        -3.04091
   C       -4.14657        -5.61787        -2.99865
   C       -4.59029        -6.28586        -4.11324
   C       -5.54433        -7.30213        -4.23744
   N       -6.26418        -8.00750        -3.30278
   C       -6.32006        -7.78323        -1.87504
   C       -7.19731        -6.58188        -1.53299
   C       -7.08406        -8.96976        -3.89980
   O       -7.82331        -9.71564        -3.28185
   C       -6.82829        -8.85197        -5.32544
   C       -5.89521        -7.82547        -5.49570
   C       -5.62103        -7.67668        -6.91116
   O       -4.89129        -6.92779        -7.52071
   N       -6.44211        -8.65361        -7.51829
   C       -6.43285        -8.86183        -8.94729
   C       -5.53112       -10.02852        -9.34191
   C       -7.15248        -9.37071        -6.59574
   C       -8.01962       -10.44467        -6.88635
   C       -8.63402       -11.10890        -5.86813
   C       -9.48833       -12.22118        -5.98484
   S      -10.05994       -12.83241        -7.50419
   C      -11.02801       -14.04476        -6.72433
   C      -10.89722       -13.96584        -5.34048
   C      -10.01463       -12.95814        -4.92679
   C       -9.61312       -12.74671        -3.50386
   N       -8.11955       -12.86700        -3.32720
   O       -7.71364       -12.67496        -2.21470
   O       -7.45585       -13.18635        -4.27985
   C      -10.23546       -13.79639        -2.57385
   C      -11.67645       -14.06678        -2.97966
   C      -11.70019       -14.75418        -4.35281
   N      -13.13846       -14.80917        -4.74735
   O      -13.75901       -15.76988        -4.36984
   O      -13.58442       -13.87770        -5.36629
   C      -11.76777       -14.98701        -7.49670
   S      -12.07214       -16.59210        -6.90894
   C      -12.87603       -17.06606        -8.32477
   C      -12.93083       -16.04864        -9.25227
   C      -12.28907       -14.84568        -8.78845
   C      -12.27217       -13.71820        -9.62842
   C      -12.85094       -13.78328       -10.86746
   N      -12.64124       -12.66580       -11.76508
   O      -12.51906       -11.57300       -11.26503
   O      -12.52718       -12.92973       -12.93881
   C      -13.50950       -14.96310       -11.31160
   N      -14.29084       -14.97373       -12.53912
   O      -14.96095       -13.99408       -12.75473
   O      -14.26365       -15.98618       -13.19298
   C      -13.54515       -16.07702       -10.52474
   H       -1.80874        -0.01654        -8.79271
   H       -4.37064         0.64419        -7.86352
   H       -4.32830        -3.82481        -5.69218
   H       -0.60210        -7.55606        -6.64238
   H       -1.93151        -6.93557        -4.42676
   H       -1.39505        -2.20800        -4.59598
   H       -2.07878        -1.58599        -2.11322
   H       -4.59337        -5.79409        -2.03165
   H       -4.19882        -5.99345        -5.07932
   H       -5.30643        -7.65943        -1.48879
   H       -6.74816        -8.69127        -1.44101
   H       -6.90003        -5.70419        -2.10176
   H       -7.11066        -6.35465        -0.47482
   H       -8.23734        -6.80007        -1.76246
   H       -6.05054        -7.93750        -9.38820
   H       -7.45617        -9.02260        -9.29573
   H       -4.50637        -9.82543        -9.04127
   H       -5.55549       -10.16054       -10.41967
   H       -5.85554       -10.95209        -8.86747
   H       -8.16781       -10.74979        -7.91207
   H       -8.45727       -10.75827        -4.86070
   H       -9.86173       -11.73427        -3.16527
   H      -10.18703       -13.44466        -1.54397
   H       -9.66572       -14.72718        -2.63942
   H      -12.22542       -13.12382        -3.03890
   H      -12.16296       -14.70874        -2.24461
   H      -11.35672       -15.79029        -4.26092
   H      -13.26930       -18.05895        -8.41154
   H      -11.79858       -12.79705        -9.32813
   H      -14.06040       -16.96342       -10.86151
*
