# ORCA input file
# SCF done       -213.925441795933          0.000625969155
! CAM-B3LYP def2-SVP def2/J RIJCOSX Grid4 TightSCF
%maxcore 5000
%tddft
    Mode sTDDFT
    Ethresh 5.0
    maxcore 5000
end

%pal
  nprocs 6
  end
* xyz 0 1
   C        0.68902         2.01890        -0.95033
   S        1.09321         3.42771        -0.06733
   C        2.15059         2.51397         0.97546
   C        2.14419         1.18519         0.64446
   C        1.31099         0.90690        -0.47074
   C        1.19903        -0.46006        -1.07852
   F       -0.12183        -0.72561        -1.39909
   C        1.71977        -1.54529        -0.13883
   C        3.04441        -1.11819         0.48220
   C        2.80683         0.07414         1.40280
   F        3.99590         0.47528         1.97526
   C        2.93077         3.19317         1.98119
   C        4.29678         3.32205         2.02119
   N        5.23213         2.84774         1.07362
   O        4.81148         2.36554         0.03894
   O        6.40945         2.99647         1.33653
   C        4.67280         4.11531         3.17443
   C        3.54576         4.52817         3.79402
   C        2.40132         3.97676         3.09940
   C        1.07600         4.04856         3.46541
   C        0.06497         3.08036         3.16056
   C       -1.03541         3.33302         3.92239
   C       -0.80420         4.51803         4.68816
   N       -1.79665         5.11839         5.48812
   O       -2.78561         4.45221         5.73561
   O       -1.61813         6.25971         5.87783
   C        0.47446         5.00563         4.41783
   C        1.01851         6.21552         4.87964
   C        1.92301         6.97825         4.18469
   C        2.45881         8.16492         4.70669
   N        3.21018         9.06556         3.99280
   C        3.61642         8.94308         2.61205
   C        4.81099         8.00576         2.45371
   C        3.58695        10.17765         4.77053
   O        4.23665        11.11195         4.35787
   C        3.01842         9.89607         6.07590
   C        2.34608         8.67519         6.01701
   C        1.82295         8.39946         7.34572
   O        1.23113         7.44569         7.79466
   N        2.19493         9.52373         8.11593
   C        1.77222         9.60763         9.49665
   C        0.55354        10.51137         9.65975
   C        2.90784        10.43132         7.37685
   C        3.45532        11.68056         7.70399
   C        3.42103        12.35834         8.89561
   C        3.97963        13.63042         9.10048
   C        4.40482        14.14728        10.33560
   N        4.24959        13.57987        11.61090
   O        4.69333        14.20373        12.55832
   O        3.67606        12.50369        11.71254
   C        5.10794        15.36461        10.11614
   C        5.14702        15.61582         8.77251
   C        4.40928        14.60390         8.08602
   C        3.98909        14.66457         6.76546
   C        2.74049        14.21164         6.25739
   C        2.58780        14.69112         4.99095
   C        3.76330        15.41510         4.60650
   N        3.82137        16.02419         3.34159
   O        2.97475        15.69484         2.52968
   O        4.67209        16.87388         3.12081
   C        4.67610        15.39078         5.66524
   C        6.04519        15.69641         5.77257
   C        6.85888        16.26916         4.83478
   C        8.21867        16.55436         5.06680
   S        8.97969        16.32102         6.62888
   C       10.45205        16.95900         6.05450
   C       10.39303        17.32486         4.73574
   C        9.12720        17.09805         4.16511
   C        8.81412        17.41378         2.73208
   F        8.22400        16.31514         2.13264
   C       10.07432        17.77658         1.94521
   C       10.98449        18.69219         2.75466
   C       11.52486        17.92998         3.96126
   F       12.24669        18.78128         4.77587
   H        0.01410         2.08210        -1.78039
   H        1.74141        -0.47964        -2.03531
   H        1.83886        -2.47677        -0.69262
   H        0.97528        -1.71080         0.64406
   H        3.75575        -0.82261        -0.29154
   H        3.47986        -1.93596         1.05729
   H        2.17051        -0.21943         2.25470
   H        5.69255         4.30915         3.44633
   H        3.48518         5.08340         4.70912
   H        0.20569         2.23312         2.51952
   H       -1.94831         2.76908         3.96145
   H        0.61851         6.59633         5.81338
   H        2.19473         6.69284         3.17833
   H        3.89480         9.94956         2.28801
   H        2.76888         8.60106         2.01244
   H        5.65613         8.38140         3.02499
   H        5.09782         7.95390         1.40746
   H        4.57534         7.00203         2.80108
   H        2.60394         9.93944        10.12121
   H        1.50542         8.58766         9.78810
   H        0.75375        11.51657         9.29600
   H        0.28505        10.56987        10.71023
   H       -0.28854        10.10273         9.10634
   H        3.98182        12.13018         6.87124
   H        3.02019        11.89087         9.78255
   H        5.52405        15.96479        10.90297
   H        5.53905        16.50530         8.31872
   H        1.99902        13.68801         6.82832
   H        1.73186        14.58121         4.35188
   H        6.50873        15.40746         6.70823
   H        6.46337        16.55008         3.86902
   H       11.29459        17.04876         6.71176
   H        8.06303        18.21581         2.67929
   H        9.78788        18.25371         1.00810
   H       10.60062        16.84976         1.70403
   H       10.43044        19.56400         3.10955
   H       11.81589        19.04230         2.14261
   H       12.23550        17.15080         3.64717
*
