# ORCA input file
# SCF done       -231.743924466963          0.000587329734
! CAM-B3LYP def2-SVP def2/J RIJCOSX Grid4 TightSCF
%maxcore 5000
%tddft
    Mode sTDDFT
    Ethresh 5.0
    maxcore 5000
end

%pal
  nprocs 6
  end
* xyz 0 1
   C       -1.72920         7.14209        10.45726
   C       -1.74076         8.46409        10.10675
   C       -1.44088         9.52373        10.99137
   N       -1.25310        10.42858        11.67031
   C       -1.91984         8.91731         8.78831
   N       -1.97513         9.30945         7.70987
   C       -1.16675         6.61004        11.68925
   C       -0.86371         5.22780        11.49994
   C       -0.20160         4.49692        12.44553
   C        0.16230         5.11930        13.65926
   C       -0.17475         6.48800        13.87511
   C       -0.83854         7.22531        12.86924
   C        0.18683         7.09128        15.09733
   C        0.85354         6.38048        16.05794
   C        1.19039         5.03545        15.84166
   C        0.85286         4.41830        14.66755
   C       -1.34425         4.79944        10.18996
   O       -1.29721         3.70566         9.67530
   C       -2.02331         6.00405         9.59256
   C       -2.81073         5.79403         8.52966
   C       -3.77794         6.66506         7.80550
   C       -5.08583         5.86292         7.72684
   O       -5.93074         5.79081         8.56349
   O       -5.13459         5.20972         6.55996
   C       -4.02490         5.51988         5.72015
   C       -3.38569         6.77821         6.32673
   C       -3.91268         8.02645         5.63089
   C       -3.40618         8.02152         4.19151
   C       -3.86224         6.78270         3.41652
   C       -4.53854         5.69120         4.27918
   O       -4.34528         4.47264         3.57448
   C       -3.38771         4.55370         2.65942
   O       -2.97178         3.61562         2.04991
   C       -2.85066         6.00852         2.54891
   C       -1.36797         5.81498         2.69577
   C       -0.72375         5.11690         1.68375
   N       -1.08367         4.97450         0.32284
   O       -0.43948         4.18568        -0.33449
   O       -1.97292         5.67653        -0.12932
   C        0.47002         4.48393         2.19676
   C        0.52684         4.70246         3.52705
   C       -0.52240         5.64793         3.87349
   C       -0.33266         6.41778         5.01368
   C       -0.24199         7.83642         5.09001
   C        0.27209         8.18396         6.30981
   C        0.43430         7.00612         7.09667
   N        0.79922         7.04225         8.44427
   O        0.88410         5.99032         9.06769
   O        0.98462         8.13806         8.95161
   C        0.08690         5.88388         6.32749
   C       -0.06250         4.56123         6.76551
   C       -0.70684         3.56543         6.07170
   C       -0.83602         2.23505         6.50533
   C       -0.45446         1.65088         7.70813
   C       -0.87145         0.29457         7.71226
   C       -1.49600         0.04549         6.39483
   C       -1.48598         1.20883         5.69798
   C       -2.01592        -1.16766         5.92577
   N       -2.44305        -2.15050         5.51406
   C       -0.79099        -0.60820         8.75194
   C       -1.25787        -1.94960         8.76520
   C       -1.07517        -2.48826        10.02478
   C       -0.44653        -1.46465        10.85668
   C       -0.26080        -0.34854        10.10841
   C        0.34141         0.81880        10.59358
   N        0.86377         1.72585        11.06547
   C       -1.44945        -3.78871        10.42947
   C       -1.36210        -4.25645        11.70836
   C       -1.77734        -5.56120        12.05305
   C       -1.78057        -6.06087        13.32564
   C       -2.20324        -7.38622        13.74137
   C       -2.52819        -8.43815        12.92370
   C       -2.91973        -9.71085        13.39199
   N       -3.24518       -10.76617        13.70417
   C       -2.49919        -8.42234        11.51309
   N       -2.49136        -8.49148        10.36702
   C       -2.18798        -7.42140        15.19912
   C       -1.70634        -6.17024        15.68144
   C       -1.40843        -5.28652        14.54526
   O       -0.96138        -4.15991        14.59757
   C       -1.58215        -5.90982        17.01644
   C       -1.94468        -6.90619        17.94938
   C       -2.43034        -8.15980        17.47569
   C       -2.54546        -8.40146        16.08745
   C       -2.79282        -9.14632        18.41515
   C       -2.68284        -8.90744        19.75819
   C       -2.20549        -7.67282        20.22333
   C       -1.84361        -6.69350        19.33832
   H        0.05827         3.46593        12.25428
   H       -1.07150         8.26200        13.05565
   H       -0.06761         8.12877        15.25710
   H        1.12804         6.85221        16.98966
   H        1.71933         4.49206        16.61040
   H        1.11036         3.38465        14.49048
   H       -2.76911         4.77357         8.15362
   H       -3.93942         7.62364         8.29422
   H       -3.33844         4.66266         5.74534
   H       -2.30276         6.75091         6.21617
   H       -3.53059         8.91030         6.14054
   H       -5.00371         8.04836         5.66406
   H       -2.32290         8.06158         4.21476
   H       -3.75801         8.91713         3.68038
   H       -4.63785         7.10032         2.71137
   H       -5.61970         5.84976         4.34463
   H       -2.98700         6.30050         1.50074
   H        1.16054         3.93506         1.58637
   H        1.31484         4.42481         4.19969
   H       -0.36711         8.50123         4.25673
   H        0.53221         9.17005         6.64323
   H        0.31735         4.33743         7.75372
   H       -1.17635         3.79632         5.12200
   H        0.01174         2.14785         8.53552
   H       -1.87510         1.36778         4.70843
   H       -1.69944        -2.45617         7.92971
   H       -0.17083        -1.58718        11.88712
   H       -1.84969        -4.43533         9.65729
   H       -0.98494        -3.62555        12.49885
   H       -2.12987        -6.18617        11.24223
   H       -1.21463        -4.95262        17.35548
   H       -2.91937        -9.35939        15.76310
   H       -3.15972       -10.09521        18.05249
   H       -2.96378        -9.66897        20.46991
   H       -2.12624        -7.50152        21.28632
   H       -1.47562        -5.74102        19.69051
*
