# ORCA input file
# SCF done       -228.717523521682          0.000803907283
! CAM-B3LYP def2-SVP def2/J RIJCOSX Grid4 TightSCF
%maxcore 5000
%tddft
    Mode sTDDFT
    Ethresh 5.0
    maxcore 5000
end

%pal
  nprocs 6
  end
* xyz 0 1
   C        4.35283        -6.27262        -1.58726
   C        5.54791        -6.62278        -2.14960
   F        6.67505        -6.55875        -1.43013
   C        5.61093        -7.05530        -3.49035
   F        6.79632        -7.39200        -4.01392
   C        4.47736        -7.13035        -4.25008
   C        3.22976        -6.77679        -3.69964
   C        3.16477        -6.34044        -2.34341
   C        1.92407        -5.98835        -1.76726
   C        0.78406        -6.07656        -2.52321
   C        0.85761        -6.51429        -3.87757
   C        2.04348        -6.85214        -4.46248
   C       -0.49810        -6.53572        -4.45511
   O       -0.81947        -6.58846        -5.61757
   C       -1.40937        -6.32872        -3.28326
   C       -0.60917        -5.81586        -2.18326
   C       -1.07563        -5.18304        -1.06504
   C       -2.43879        -4.88134        -0.85666
   N       -3.53610        -4.60057        -0.67139
   C       -0.24754        -4.70319        -0.02766
   N        0.38375        -4.29598         0.83918
   C       -2.70601        -6.70401        -3.26112
   C       -3.36163        -7.44927        -4.29447
   C       -2.92917        -8.56456        -4.98752
   N       -1.71122        -9.26660        -4.87906
   O       -1.55311       -10.22085        -5.61387
   O       -0.89390        -8.91346        -4.03995
   C       -4.00364        -9.05890        -5.82046
   C       -5.10361        -8.30513        -5.60145
   C       -4.77527        -7.27062        -4.64864
   C       -5.57898        -6.23345        -4.23434
   C       -5.13400        -4.93097        -3.83953
   C       -6.19982        -4.08488        -3.83640
   C       -7.38889        -4.83138        -4.13622
   N       -8.66660        -4.24323        -4.16591
   O       -8.74289        -3.05590        -3.91487
   O       -9.62681        -4.94266        -4.45954
   C       -7.05462        -6.16978        -4.32876
   C       -7.96008        -7.24935        -4.39197
   C       -7.65625        -8.54003        -4.08411
   C       -8.52801        -9.66593        -4.09209
   C       -9.88549        -9.75386        -4.56242
   C      -10.72057        -8.82842        -5.13976
   S      -12.31175        -9.41919        -5.32573
   C      -11.90281       -10.93857        -4.67339
   C      -10.57328       -11.00874        -4.33334
   C       -9.80032       -12.11386        -3.85376
   N       -8.54621       -11.88824        -3.48787
   N       -7.98722       -10.74703        -3.53609
   C      -10.23760       -13.47390        -3.77220
   C       -9.66198       -14.42269        -2.95805
   C      -10.30402       -15.67781        -3.17680
   C      -11.32804       -15.43338        -4.20869
   C      -11.27926       -14.11832        -4.55209
   C      -12.19507       -16.37513        -4.77424
   N      -12.92123       -17.12084        -5.25979
   C      -10.01262       -16.88156        -2.57976
   C      -10.62951       -18.14480        -2.80848
   C      -10.04270       -19.10200        -2.00477
   C       -8.97592       -18.44295        -1.25176
   C       -8.95290       -17.12735        -1.58220
   C       -8.05315       -16.19030        -1.05749
   N       -7.30393       -15.45157        -0.59807
   C      -10.42127       -20.47146        -2.02006
   C      -10.18760       -21.46216        -1.11099
   C       -9.59744       -21.29980         0.16094
   C       -9.34758       -22.25326         1.10408
   C       -8.35815       -21.93209         2.17520
   O       -7.94840       -20.83254         2.46445
   C       -7.95235       -23.23568         2.73076
   C       -6.97721       -23.51034         3.64616
   C       -6.73219       -24.85424         4.00508
   C       -7.50306       -25.89051         3.40175
   C       -7.24759       -27.22992         3.75794
   C       -6.27412       -27.52626         4.67042
   C       -5.51253       -26.50038         5.26665
   C       -5.73633       -25.19168         4.94234
   F       -4.56426       -26.82089         6.15525
   F       -6.03279       -28.79866         5.00720
   C       -8.51067       -25.57480         2.46144
   C       -8.73733       -24.26457         2.13494
   C       -9.71320       -23.64652         1.23751
   C      -10.87134       -24.23898         0.80808
   C      -11.93355       -23.54902         0.18557
   N      -12.84357       -23.02747        -0.27962
   C      -11.18821       -25.59422         1.04156
   N      -11.48490       -26.69277         1.18974
   H        4.32252        -5.94417        -0.56007
   H        4.54220        -7.46476        -5.27359
   H        1.90180        -5.67163        -0.73652
   H        2.07429        -7.18726        -5.48772
   H       -3.31680        -6.48036        -2.39477
   H       -3.89284        -9.89357        -6.48554
   H       -6.04408        -8.37971        -6.11075
   H       -4.10745        -4.65112        -3.70848
   H       -6.19504        -3.02837        -3.64533
   H       -8.98279        -6.96921        -4.59189
   H       -6.66563        -8.78580        -3.72566
   H      -10.51897        -7.82438        -5.45035
   H      -12.65642       -11.69137        -4.56548
   H       -8.86908       -14.23861        -2.26123
   H      -11.87289       -13.64669        -5.31223
   H      -11.44663       -18.31277        -3.48274
   H       -8.27601       -18.91898        -0.59182
   H      -11.00101       -20.74957        -2.89256
   H      -10.50524       -22.45695        -1.38856
   H       -9.23861       -20.31602         0.43394
   H       -6.39946       -22.71297         4.08812
   H       -7.82297       -28.02725         3.31417
   H       -5.14537       -24.41809         5.40700
   H       -9.07095       -26.38029         2.01435
*
