# ORCA input file
# SCF done       -179.995063824662          0.000396938329
! CAM-B3LYP def2-SVP def2/J RIJCOSX Grid4 TightSCF
%maxcore 5000
%tddft
    Mode sTDDFT
    Ethresh 5.0
    maxcore 5000
end

%pal
  nprocs 6
  end
* xyz 0 1
   C       -5.51147         1.86940        -6.76246
   O       -6.36112         1.57996        -5.77053
   C       -6.07686         2.53704        -4.85070
   N       -5.12254         3.32309        -5.27995
   N       -4.76900         2.89285        -6.49584
   C       -6.76534         2.59741        -3.60136
   C       -6.46726         3.57321        -2.71385
   C       -7.03407         3.81376        -1.43014
   C       -8.28504         3.53584        -0.88719
   N       -9.35974         2.77437        -1.38333
   O      -10.45958         3.00789        -0.91203
   O       -9.15432         1.92095        -2.23021
   C       -8.43158         4.24560         0.35672
   C       -7.30738         4.96914         0.58865
   C       -6.37814         4.72405        -0.47478
   C       -5.06343         5.14754        -0.52048
   C       -3.96573         4.47940        -1.14124
   C       -2.81210         5.09515        -0.76119
   C       -3.12436         6.22086         0.07190
   N       -2.12117         7.13827         0.43736
   O       -2.43917         8.19773         0.95303
   O       -0.97026         6.82705         0.18269
   C       -4.50862         6.29095         0.23916
   C       -5.33896         7.27286         0.81864
   C       -5.02688         8.07546         1.88161
   C       -5.78769         9.11922         2.43891
   N       -6.85581         9.81504         1.92545
   C       -7.51130         9.65359         0.64895
   C       -8.68856         8.68369         0.73100
   C       -7.26954        10.85877         2.78484
   O       -8.17494        11.61867         2.52862
   C       -6.37637        10.75849         3.92205
   C       -5.49250         9.70033         3.68560
   C       -4.59941         9.60412         4.82277
   O       -3.70999         8.83390         5.09628
   N       -4.99288        10.67574         5.66877
   C       -4.34275        10.83366         6.94913
   C       -5.22953        10.36589         8.09964
   C       -6.05256        11.36848         5.14647
   C       -6.73049        12.51260         5.62668
   C       -6.43255        13.28395         6.70580
   C       -7.15279        14.44855         7.06342
   S       -8.58800        14.95653         6.21477
   C       -6.83267        15.33008         8.09654
   C       -5.66264        15.15672         8.98435
   O       -4.88092        14.22089         8.91219
   C       -5.53739        16.22474         9.95584
   C       -4.58171        16.41418        10.93224
   N       -4.87065        17.55221        11.60368
   C       -4.06452        18.12374        12.65342
   C       -2.98505        19.03870        12.07897
   C       -5.98609        18.11527        11.08208
   C       -6.44138        17.31977        10.05291
   C       -7.60468        17.50174         9.19977
   O       -8.36248        18.44718         9.30203
   C       -7.74576        16.41577         8.19908
   C       -8.75119        16.33078         7.24472
   C       -9.88216        17.15323         6.96290
   O      -10.25016        18.24713         7.64489
   C      -11.36434        18.64942         7.00002
   N      -11.64616        17.85159         6.00231
   N      -10.71387        16.90752         5.97697
   C      -12.09723        19.81511         7.41238
   C      -11.71374        20.56074         8.44413
   H       -5.49685         1.27675        -7.65312
   H       -7.50340         1.83321        -3.41696
   H       -5.69021         4.26624        -3.01052
   H       -9.30530         4.16980         0.97592
   H       -7.08200         5.51668         1.48331
   H       -4.03718         3.57954        -1.71938
   H       -1.80839         4.82203        -1.02736
   H       -6.32755         7.32579         0.38757
   H       -4.10699         7.89715         2.42096
   H       -6.77649         9.34060        -0.09569
   H       -7.89130        10.64256         0.37433
   H       -8.38191         7.70770         1.10049
   H       -9.13324         8.55998        -0.25244
   H       -9.44314         9.08271         1.40403
   H       -4.02856        11.87017         7.08737
   H       -3.44779        10.20584         6.90112
   H       -6.17008        10.91089         8.11991
   H       -4.71490        10.52889         9.04179
   H       -5.44445         9.30486         7.99695
   H       -7.56864        12.80168         5.00188
   H       -5.59747        13.06812         7.35419
   H       -3.73515        15.80447        11.17844
   H       -3.60301        17.31029        13.21890
   H       -4.71718        18.68932        13.32302
   H       -2.32791        18.48084        11.41630
   H       -2.39114        19.46168        12.88393
   H       -3.43695        19.85080        11.51461
   H       -6.39553        19.02939        11.46388
   H      -12.97239        20.02786         6.81820
   H      -10.82979        20.31275         9.00919
   H      -12.26804        21.43176         8.74629
*
