# ORCA input file
# SCF done       -217.270962028417          0.000431365959
! CAM-B3LYP def2-SVP def2/J RIJCOSX Grid4 TightSCF
%maxcore 5000
%tddft
    Mode sTDDFT
    Ethresh 5.0
    maxcore 5000
end

%pal
  nprocs 6
  end
* xyz 0 1
   C       -9.23244        -3.52191         8.54063
   N      -10.49059        -3.04910         8.65722
   C      -11.64176        -3.79041         9.11182
   C      -12.17808        -4.71186         8.01957
   C      -10.58417        -1.70986         8.18864
   O      -11.62164        -1.08801         8.15092
   C       -9.22845        -1.38485         7.80046
   C       -8.42584        -2.53697         8.01760
   C       -7.07305        -2.23185         7.58176
   O       -6.05702        -2.88189         7.56234
   N       -7.16103        -0.90109         7.11511
   C       -5.99153        -0.19989         6.64138
   C       -5.43328         0.75167         7.69606
   C       -8.42261        -0.37993         7.25859
   C       -8.78578         0.93351         6.88589
   C       -9.97914         1.49133         7.24472
   C      -10.40583         2.78518         6.88005
   C      -11.23503         3.62183         7.61780
   N      -11.84801         3.34577         8.85823
   O      -11.49814         2.35093         9.46870
   O      -12.69111         4.13311         9.24503
   C      -11.33249         4.89557         6.96780
   C      -10.54824         4.88240         5.85580
   C       -9.98615         3.57332         5.69948
   C       -9.38996         3.07298         4.56066
   C       -9.50483         1.71905         4.08457
   C       -9.08061         1.66847         2.79596
   C       -8.60473         2.96873         2.41628
   N       -8.03851         3.22348         1.15038
   O       -8.03141         2.30482         0.35264
   O       -7.59550         4.33664         0.91971
   C       -8.76257         3.85096         3.48014
   C       -8.27853         5.18171         3.53582
   C       -7.90726         5.84686         4.65925
   C       -7.40357         7.16940         4.64119
   S       -7.35357         8.19170         3.21013
   C       -6.63337         9.40381         4.26778
   N       -6.50135         8.97569         5.49880
   N       -6.92224         7.77369         5.70119
   C       -6.25091        10.67862         3.78827
   C       -5.69881        11.62864         4.59252
   C       -5.29709        12.91165         4.15741
   C       -5.26069        14.07394         4.91507
   N       -5.45931        14.21561         6.30725
   O       -5.31222        15.32909         6.77232
   O       -5.74786        13.22748         6.95742
   C       -5.02959        15.19971         4.05405
   C       -4.93971        14.76119         2.76940
   C       -5.00819        13.33162         2.76334
   C       -4.65854        12.50244         1.72295
   C       -4.09101        11.18393         1.84607
   C       -3.76943        10.72835         0.61015
   C       -4.16392        11.71085        -0.36401
   N       -4.19661        11.36526        -1.74411
   O       -5.02060        11.90717        -2.45659
   O       -3.43420        10.49391        -2.10240
   C       -4.66629        12.83345         0.28280
   C       -5.20909        14.00704        -0.30252
   C       -4.80622        14.46573        -1.52545
   C       -5.50521        15.37381        -2.34800
   C       -5.47141        15.33568        -3.73614
   N       -4.54374        14.66825        -4.57129
   O       -4.85492        14.53444        -5.73744
   O       -3.48727        14.30806        -4.08732
   C       -6.63497        16.00133        -4.25791
   C       -7.36428        16.49957        -3.22718
   C       -6.63881        16.27090        -2.00512
   C       -6.74399        16.96822        -0.83235
   C       -5.71303        17.03116         0.18981
   C       -6.18161        17.71973         1.24784
   C       -7.54767        18.11447         0.95209
   N       -8.35711        18.83598         1.85524
   O       -9.48252        19.13578         1.49871
   O       -7.87624        19.10779         2.93876
   C       -7.88731        17.74054        -0.32276
   C       -9.16900        18.00541        -0.95408
   C       -9.32980        18.76801        -2.02775
   H       -8.98073        -4.52313         8.83960
   H      -12.40135        -3.05294         9.38354
   H      -11.36552        -4.36773         9.99801
   H      -12.47259        -4.13049         7.14936
   H      -13.04704        -5.24932         8.38753
   H      -11.42230        -5.43401         7.71843
   H       -6.23568         0.33653         5.71970
   H       -5.25066        -0.97108         6.41320
   H       -6.16920         1.50201         7.97701
   H       -4.55178         1.25363         7.30774
   H       -5.15074         0.19476         8.58579
   H       -8.06309         1.51967         6.33504
   H      -10.62740         0.95214         7.92709
   H      -11.93410         5.70511         7.33584
   H      -10.45906         5.67184         5.13620
   H       -9.97885         0.92524         4.62708
   H       -9.08598         0.82343         2.13420
   H       -8.11327         5.65615         2.57480
   H       -7.93562         5.38200         5.63468
   H       -6.45137        10.87604         2.74454
   H       -5.64062        11.42745         5.65542
   H       -4.94984        16.20882         4.41257
   H       -4.70180        15.36128         1.91581
   H       -3.87689        10.70259         2.77976
   H       -3.31379         9.79182         0.34942
   H       -6.00668        14.50052         0.23573
   H       -3.95433        13.99819        -2.00059
   H       -6.85597        16.06178        -5.30725
   H       -8.27161        17.06426        -3.30040
   H       -4.71918        16.65495         0.04366
   H       -5.67863        17.98131         2.15850
   H      -10.03376        17.61831        -0.42887
   H       -8.49749        19.24974        -2.51573
   H      -10.30835        18.97591        -2.42331
*
