# ORCA input file
# SCF done       -159.793763279040          0.000857112523
! CAM-B3LYP def2-SVP def2/J RIJCOSX Grid4 TightSCF
%maxcore 5000
%tddft
    Mode sTDDFT
    Ethresh 5.0
    maxcore 5000
end

%pal
  nprocs 6
  end
* xyz 0 1
   C        0.06826         0.96971         2.83631
   O       -0.07451        -0.33931         2.66308
   C       -1.28370        -0.69637         3.17236
   C       -1.91267         0.41915         3.68070
   C       -1.03417         1.51044         3.46148
   C       -1.29914         2.91088         3.83326
   O       -2.31764         3.23655         4.39512
   C       -0.21768         3.89329         3.45984
   C       -1.70191        -2.05595         3.09140
   C       -1.01238        -3.10636         2.53691
   C       -1.79998        -4.28732         2.65120
   C       -3.05478        -3.88277         3.31676
   C       -2.98284        -2.55014         3.57194
   C       -4.17909        -4.68023         3.56420
   N       -5.14349        -5.27614         3.74831
   C       -1.48484        -5.55365         2.21103
   C       -2.24571        -6.74135         2.37469
   C       -1.63484        -7.77590         1.68722
   C       -0.42171        -7.24690         1.08390
   C       -0.30829        -5.93186         1.41083
   C        0.74904        -5.10618         1.01359
   N        1.63825        -4.46546         0.66910
   C       -2.16550        -9.09009         1.62707
   N       -1.89705       -10.06388         0.69730
   C       -1.06846        -9.97892        -0.48305
   C       -1.61930        -8.99321        -1.50810
   C       -2.67034       -11.22248         0.91627
   O       -2.61778       -12.20163         0.20088
   C       -3.43779       -10.92830         2.10485
   C       -3.11119        -9.62070         2.51455
   C       -3.82164        -9.34621         3.74977
   O       -3.82460        -8.39581         4.49850
   N       -4.56745       -10.51982         3.98297
   C       -5.47461       -10.60432         5.10218
   C       -6.91320       -10.30658         4.68736
   C       -4.36261       -11.46859         3.01267
   C       -4.99601       -12.72765         2.98791
   C       -4.78030       -13.63569         1.99063
   C       -5.39879       -14.90104         1.89403
   C       -5.19847       -15.80322         0.86429
   C       -5.99430       -16.95992         1.08567
   C       -6.71477       -16.71839         2.35111
   C       -6.35415       -15.49512         2.81906
   C       -7.62013       -17.57566         2.98650
   N       -8.36454       -18.24777         3.54706
   C       -6.09559       -18.07810         0.28885
   C       -6.90447       -19.23118         0.50668
   C       -6.72839       -20.11014        -0.53820
   C       -5.77734       -19.52223        -1.47026
   C       -5.39152       -18.31325        -0.98635
   C       -4.48542       -17.45476        -1.61920
   N       -3.74112       -16.77218        -2.16649
   C       -7.40444       -21.36257        -0.65375
   O       -8.28318       -21.64954         0.33166
   C       -8.85660       -22.82407         0.05375
   C       -8.38261       -23.32824        -1.11607
   C       -7.42440       -22.39480        -1.60009
   C       -6.64077       -22.56731        -2.83047
   O       -5.63442       -21.94144        -3.07990
   C       -7.17025       -23.61718        -3.77649
   H        0.97998         1.41213         2.48405
   H       -2.87280         0.47675         4.14934
   H       -0.06011         3.87737         2.38388
   H        0.71498         3.62005         3.94771
   H       -0.51039         4.89279         3.76944
   H       -0.03476        -3.05477         2.10060
   H       -3.73892        -1.94760         4.03809
   H       -3.15191        -6.81480         2.94180
   H        0.29792        -7.80111         0.51310
   H       -1.06814       -10.98761        -0.90774
   H       -0.04271        -9.72825        -0.20180
   H       -2.61844        -9.29410        -1.81442
   H       -0.97687        -8.98186        -2.38426
   H       -1.67023        -7.98550        -1.10103
   H       -5.13945        -9.85004         5.81957
   H       -5.39370       -11.59176         5.56493
   H       -6.97755        -9.30187         4.27725
   H       -7.56609       -10.36970         5.55339
   H       -7.25839       -11.01217         3.93443
   H       -5.68089       -12.95929         3.79063
   H       -4.09148       -13.38690         1.19383
   H       -4.54701       -15.65264         0.02592
   H       -6.71404       -15.04179         3.72402
   H       -7.54846       -19.38208         1.35020
   H       -5.43916       -19.99060        -2.37380
   H       -9.57989       -23.19545         0.75297
   H       -8.66695       -24.25552        -1.56743
   H       -8.22959       -23.46469        -3.96702
   H       -7.03356       -24.60392        -3.33834
   H       -6.61546       -23.56846        -4.70982
*
