# ORCA input file
# SCF done       -217.319182320252          0.000849635254
! CAM-B3LYP def2-SVP def2/J RIJCOSX Grid4 TightSCF
%maxcore 5000
%tddft
    Mode sTDDFT
    Ethresh 5.0
    maxcore 5000
end

%pal
  nprocs 6
  end
* xyz 0 1
   C       -3.73607        -0.75421         0.24522
   C       -4.00928        -1.79161         1.09838
   C       -3.31385        -3.01964         1.09567
   N       -2.78141        -4.03503         1.14969
   C       -5.02411        -1.81021         2.07874
   N       -5.82841        -1.91497         2.89183
   C       -2.71906        -0.76729        -0.80097
   C       -2.79101         0.45243        -1.52142
   C       -1.96101         0.74187        -2.57786
   C       -1.01020        -0.21607        -2.94126
   C       -0.94233        -1.42993        -2.21552
   C       -1.78389        -1.72327        -1.14823
   S        0.30588        -2.46295        -2.83489
   C        0.71757        -1.28764        -4.03469
   C       -0.03963        -0.16997        -3.98110
   C       -3.85261         1.28870        -0.94732
   O       -4.19496         2.39349        -1.33608
   C       -4.40729         0.53264         0.18264
   C       -5.35486         0.98879         1.06064
   C       -6.03972         2.21196         1.09452
   S       -5.91281         3.51622        -0.05476
   C       -7.06076         4.47146         0.81896
   C       -7.51793         3.80580         1.95916
   C       -6.95378         2.54390         2.11292
   S       -7.25757         1.41908         3.42664
   C       -8.40073         2.15428         4.56348
   O       -8.64430         1.52754         5.55534
   C       -9.08702         3.48587         4.34085
   O       -9.92473         3.85176         5.11843
   S       -8.71105         4.57013         3.00261
   C       -7.44377         5.77653         0.41403
   C       -7.01252         6.35422        -0.72924
   C       -7.32158         7.67877        -1.19660
   C       -6.92062         8.03496        -2.49671
   C       -7.17876         9.29650        -2.97286
   C       -7.79219        10.25206        -2.14046
   C       -8.20232         9.91163        -0.85767
   C       -7.97806         8.63049        -0.40132
   C       -7.82153        11.51885        -2.83502
   C       -7.23814        11.34593        -4.10229
   C       -6.85930         9.89714        -4.32273
   C       -5.38121         9.73247        -4.70370
   C       -4.44506        10.37910        -3.68895
   C       -7.79869         9.34809        -5.42380
   C       -7.72264         7.84733        -5.66987
   C       -7.10637        12.41086        -4.95788
   C       -7.52645        13.68872        -4.55230
   C       -8.11873        13.84079        -3.28995
   C       -8.27417        12.76977        -2.43547
   C       -7.32519        14.79091        -5.45993
   C       -7.38827        16.09912        -5.13529
   C       -7.17099        17.20555        -6.00418
   S       -6.95282        18.76260        -5.26685
   C       -6.72699        19.54311        -6.79635
   C       -6.84220        18.61795        -7.83021
   C       -7.09066        17.30954        -7.39143
   S       -7.36635        15.92462        -8.44242
   C       -7.41273        16.45552       -10.12772
   O       -7.75833        15.63932       -10.93634
   C       -6.96527        17.82350       -10.59141
   O       -6.81902        18.03580       -11.76225
   S       -6.64291        19.16613        -9.48903
   C       -6.49848        20.93032        -6.92854
   C       -6.39396        21.79844        -5.89103
   C       -6.15531        23.18976        -6.01558
   C       -6.36834        24.03270        -7.06376
   C       -7.11199        23.93710        -8.30360
   C       -8.23619        23.18871        -8.54204
   C       -8.98261        23.24847        -9.73765
   N       -9.62869        23.24646       -10.68623
   C       -8.83304        22.32133        -7.60742
   N       -9.37222        21.60663        -6.88841
   C       -6.60825        24.98129        -9.19028
   C       -5.76180        25.84467        -8.44756
   C       -5.65121        25.34320        -7.06816
   O       -5.06858        25.84442        -6.13403
   C       -5.16062        26.94697        -9.00630
   C       -5.39513        27.20256       -10.36071
   C       -6.22770        26.32481       -11.09722
   C       -6.84272        25.21398       -10.53138
   S       -6.36249        26.82679       -12.75207
   C       -5.33088        28.18164       -12.45054
   C       -4.89849        28.26050       -11.17305
   H       -2.04348         1.67954        -3.10516
   H       -1.68884        -2.66153        -0.62815
   H        1.51447        -1.50984        -4.71753
   H        0.07292         0.66634        -4.64701
   H       -5.62405         0.32766         1.87608
   H       -8.11962         6.29261         1.08172
   H       -6.36771         5.76756        -1.37345
   H       -6.40101         7.30553        -3.09989
   H       -8.67939        10.64251        -0.22238
   H       -8.28578         8.36669         0.59818
   H       -5.21851        10.17977        -5.68632
   H       -5.14688         8.66999        -4.77618
   H       -4.63270        11.44816        -3.61665
   H       -3.40978        10.23109        -3.98705
   H       -4.58541         9.93976        -2.70364
   H       -7.56530         9.87539        -6.35129
   H       -8.82461         9.60594        -5.14782
   H       -6.71686         7.53899        -5.94221
   H       -8.38756         7.58532        -6.48993
   H       -8.03809         7.29254        -4.79040
   H       -6.66018        12.28715        -5.93408
   H       -8.47545        14.81203        -2.98483
   H       -8.73654        12.90440        -1.46931
   H       -7.05574        14.50932        -6.46764
   H       -7.57355        16.38604        -4.10910
   H       -6.36941        21.28234        -7.94395
   H       -6.42670        21.40173        -4.88418
   H       -5.67064        23.66255        -5.16565
   H       -4.52810        27.59139        -8.41582
   H       -7.46065        24.56870       -11.13373
   H       -5.10726        28.84589       -13.26262
   H       -4.24999        29.03389       -10.80323
*
