# ORCA input file
# SCF done       -191.833147446576          0.000457816594
! CAM-B3LYP def2-SVP def2/J RIJCOSX Grid4 TightSCF
%maxcore 5000
%tddft
    Mode sTDDFT
    Ethresh 5.0
    maxcore 5000
end

%pal
  nprocs 6
  end
* xyz 0 1
   C       -2.11083        -1.00185         0.25560
   C       -2.63743        -2.25969         0.11593
   C       -1.86366        -3.43649         0.05173
   N       -1.28250        -4.42520        -0.00211
   C       -4.01225        -2.54403        -0.02733
   N       -5.10610        -2.85680        -0.18121
   C       -0.69223        -0.66704         0.27662
   C       -0.55936         0.74274         0.29216
   C        0.66190         1.37101         0.30413
   C        1.80860         0.57003         0.29415
   C        1.66620        -0.83775         0.28406
   C        0.43080        -1.47357         0.27641
   S        3.21004        -1.63592         0.28351
   C        4.01384        -0.08863         0.29279
   C        3.17253         0.97217         0.29768
  Br        5.88813        -0.01896         0.29550
   C       -1.89780         1.36662         0.32373
   O       -2.12888         2.54914         0.46108
   C       -2.86137         0.23708         0.30272
   C       -4.20309         0.36236         0.50692
   C       -4.93813         1.57505         0.36894
   C       -6.03242         1.85163         1.21694
   C       -6.71462         3.12151         1.18374
   N       -7.75255         3.33787         2.00923
   C       -8.09993         2.40478         2.86134
   C       -7.38578         1.16389         2.92856
   N       -6.38866         0.91723         2.11508
   C       -7.76830         0.18454         3.87888
   N       -8.10456        -0.57372         4.66907
   C       -9.20476         2.63531         3.71809
   N      -10.08739         2.79744         4.43039
   C       -6.34652         4.14544         0.28128
   C       -5.36049         3.80543        -0.66401
   C       -4.66064         2.54063        -0.61828
   N       -3.78483         2.41993        -1.61412
   S       -3.78852         3.76985        -2.47731
   N       -4.91830         4.57036        -1.66877
   C       -6.91592         5.47741         0.34317
   C       -7.12843         6.20369        -0.83930
   C       -7.59785         7.49092        -0.76759
   C       -7.90020         8.06885         0.48029
   C       -7.70645         7.35319         1.65413
   C       -7.21145         6.06887         1.57903
   C       -8.41993         9.39771         0.26127
   C       -8.45409         9.64261        -1.12323
   C       -7.87713         8.46807        -1.88688
   C       -6.56895         8.95569        -2.55398
   C       -5.73479         7.88669        -3.24853
   C       -8.86507         7.90305        -2.91762
   C      -10.20797         7.54010        -2.29361
   C       -8.92664        10.83485        -1.61186
   C       -9.37526        11.82247        -0.71971
   C       -9.31410        11.56754         0.65907
   C       -8.85082        10.36830         1.15604
   C       -9.89057        13.09451        -1.15940
   C      -10.23603        13.42551        -2.42076
   C      -10.70726        14.72155        -2.78848
   O      -10.58679        15.74933        -1.90606
   C      -11.00892        16.86711        -2.50895
   C      -11.42257        16.61418        -3.77736
   C      -11.24776        15.21633        -3.97440
   N      -11.59412        14.56116        -5.13080
   C      -11.88810        13.25024        -5.28066
   C      -12.21683        12.68553        -6.47653
   C      -12.57491        11.33382        -6.71823
   C      -12.87971        11.06083        -8.01284
   C      -12.78008        12.17459        -8.88507
   S      -12.27477        13.59668        -7.99308
   C      -13.02449        12.21874       -10.23616
   C      -13.43705        11.14784       -11.07618
   C      -13.60164        11.48852       -12.37361
   C      -13.32997        12.86657       -12.66599
   S      -12.85323        13.69239       -11.17428
   C      -13.40570        13.48644       -13.85162
   H        0.73110         2.44749         0.31864
   H        0.37376        -2.54929         0.27661
   H        3.49800         1.99644         0.30468
   H       -4.77630        -0.48808         0.85418
   H       -6.94414         5.72463        -1.78616
   H       -7.93105         7.79574         2.61273
   H       -7.02423         5.51699         2.48602
   H       -5.95800         9.42895        -1.78080
   H       -6.83550         9.72804        -3.27986
   H       -5.38065         7.14265        -2.54117
   H       -4.86740         8.35573        -3.70866
   H       -6.30080         7.38900        -4.03157
   H       -8.43281         7.01147        -3.37284
   H       -9.01622         8.64437        -3.70585
   H      -10.07666         6.79494        -1.51232
   H      -10.87589         7.13178        -3.04892
   H      -10.67933         8.41619        -1.85308
   H       -8.94157        11.02036        -2.67524
   H       -9.65081        12.33384         1.34247
   H       -8.81979        10.18942         2.22016
   H      -10.03463        13.83721        -0.38592
   H      -10.14303        12.71306        -3.22588
   H      -10.97143        17.77494        -1.94038
   H      -11.81083        17.31438        -4.48779
   H      -11.74193        15.14834        -5.94308
   H      -11.88748        12.64477        -4.38775
   H      -12.59807        10.61270        -5.92041
   H      -13.17581        10.09202        -8.37200
   H      -13.59790        10.15924       -10.68392
   H      -13.90920        10.81421       -13.15295
   H      -13.69944        12.94658       -14.73433
   H      -13.17758        14.53080       -13.96045
*
