# ORCA input file
# SCF done       -188.767219393669          0.000726619640
! CAM-B3LYP def2-SVP def2/J RIJCOSX Grid4 TightSCF
%maxcore 5000
%tddft
    Mode sTDDFT
    Ethresh 5.0
    maxcore 5000
end

%pal
  nprocs 6
  end
* xyz 0 1
   C      -18.52749        -8.76179         6.18548
   C      -17.49069        -9.42885         5.57265
   C      -17.27628       -10.81728         5.67159
   N      -17.04365       -11.94210         5.70759
   C      -16.50043        -8.84682         4.75743
   N      -15.65349        -8.46343         4.08107
   C      -19.54820        -9.38945         7.02358
   C      -20.45711        -8.39269         7.45347
   C      -21.53141        -8.66788         8.26212
   C      -21.71919        -9.99357         8.66988
   C      -20.80621       -10.98183         8.23657
   C      -19.71892       -10.70271         7.41647
   S      -21.22063       -12.55176         8.85801
   C      -22.59659       -11.86589         9.68018
   C      -22.74061       -10.53203         9.50032
  Br      -23.71385       -12.97688        10.69936
   C      -20.04116        -7.08489         6.90119
   O      -20.60647        -6.02161         7.07268
   C      -18.81910        -7.35369         6.12196
   C      -18.08052        -6.39036         5.46313
   C      -18.38535        -5.03480         5.41645
   C      -17.58633        -4.11431         4.76430
   C      -17.80224        -2.72037         4.66855
   C      -16.83252        -2.05083         3.98113
   C      -15.80249        -2.88591         3.49863
   S      -16.11024        -4.55281         3.93779
   C      -14.66718        -2.53245         2.79346
   C      -14.24557        -1.23931         2.39992
   C      -13.05600        -1.22835         1.74522
   C      -12.45946        -2.51127         1.57143
   S      -13.51285        -3.73249         2.27856
   C      -11.23728        -2.72502         1.00316
   C      -10.52649        -3.94811         0.78665
   C       -9.15039        -3.86681         0.48949
   C       -8.42162        -5.01333         0.31261
   C       -9.04181        -6.27376         0.38899
   C      -10.40240        -6.36992         0.64781
   C      -11.12837        -5.21596         0.84976
   C       -8.04194        -7.29485         0.16375
   C       -6.79817        -6.66948        -0.02603
   C       -6.94530        -5.16344         0.01589
   C       -6.59980        -4.55012        -1.34574
   C       -6.08558        -4.53452         1.11556
   C       -5.66428        -7.41884        -0.23480
   C       -5.76991        -8.81293        -0.27743
   C       -7.01643        -9.42444        -0.13009
   C       -8.15340        -8.67655         0.10375
   C       -4.58790        -9.62812        -0.50347
   S       -4.61406       -10.91437        -1.65743
   C       -2.97050       -11.29508        -1.35289
   C       -2.42519       -10.49402        -0.39677
   N       -1.13176       -10.66535         0.12305
   O       -0.44908        -9.46634         0.36656
   O       -0.35163       -11.49386        -0.69673
   C       -3.35855        -9.53247         0.10566
   N       -3.17691        -8.62612         1.17026
   O       -2.46286        -9.09893         2.24089
   O       -2.52163        -7.41771         0.64202
   N       -2.72499        -6.35264         1.48678
   C       -1.81378        -6.16905         2.49227
   S       -0.21642        -6.78695         2.28705
   C        0.24369        -6.03377         3.78157
   N        1.55557        -6.20192         4.21791
   O        1.88170        -5.67436         5.26735
   O        2.29153        -6.87180         3.50870
   C       -0.78081        -5.34774         4.37957
   C       -1.98061        -5.40823         3.64880
   C       -3.23409        -4.78990         4.03468
   C       -3.39309        -3.95087         5.05199
   H      -22.20622        -7.88567         8.57281
   H      -19.05157       -11.49280         7.11601
   H      -23.53280        -9.94968         9.93432
   H      -17.18342        -6.70332         4.94271
   H      -19.27543        -4.67709         5.91311
   H      -18.66521        -2.25780         5.11341
   H      -16.83330        -0.98883         3.81230
   H      -14.82534        -0.36141         2.62096
   H      -12.57412        -0.33914         1.37810
   H      -10.70832        -1.82644         0.70533
   H       -8.68058        -2.89539         0.42677
   H      -10.88829        -7.33220         0.69394
   H      -12.18736        -5.29461         1.03288
   H       -7.22445        -4.98449        -2.12307
   H       -5.55775        -4.73931        -1.59154
   H       -6.76432        -3.47550        -1.32744
   H       -6.27912        -5.02387         2.06845
   H       -6.31933        -3.47773         1.21911
   H       -5.03058        -4.62555         0.86595
   H       -4.70672        -6.95349        -0.40749
   H       -7.07887       -10.50112        -0.18492
   H       -9.10953        -9.15940         0.23355
   H       -2.48965       -12.09232        -1.88049
   H       -0.34619        -8.93364        -0.44223
   H        0.23208       -11.98861        -0.10319
   H       -1.58180        -9.42657         1.96298
   H       -3.70723        -6.23700         1.72607
   H       -0.65622        -4.83979         5.31769
   H       -4.09315        -5.05200         3.43222
   H       -2.57700        -3.64343         5.68106
   H       -4.35824        -3.53817         5.28701
*
