# ORCA input file
# SCF done       -166.998293106142          0.000653876773
! CAM-B3LYP def2-SVP def2/J RIJCOSX Grid4 TightSCF
%maxcore 5000
%tddft
    Mode sTDDFT
    Ethresh 5.0
    maxcore 5000
end

%pal
  nprocs 6
  end
* xyz 0 1
   C       -0.07825       -13.92491        10.39499
   C       -0.04706       -13.04009         9.39037
   C       -0.21357       -11.61591         9.46689
   C       -0.13195       -10.97830         8.27982
   C        0.10532       -11.83729         7.16791
   S        0.22001       -13.50303         7.70192
   C        0.23768       -11.47497         5.85133
   C        0.17000       -10.17321         5.29015
   C        0.34700       -10.13222         3.94641
   C        0.57460       -11.40308         3.34933
   S        0.53280       -12.66051         4.59016
   C        0.80678       -11.65401         2.03340
   N        1.06454       -12.89922         1.54614
   C        1.31439       -13.23531         0.25763
   S        2.13228       -14.73616        -0.06576
   C        2.17584       -14.33552        -1.75531
   N        2.77132       -15.24379        -2.62643
   O        2.82372       -14.94660        -3.80887
   O        3.21147       -16.27266        -2.13471
   C        1.59695       -13.12467        -2.03500
   C        1.08770       -12.48043        -0.89733
   C        0.33731       -11.24174        -0.96098
   C        0.64538       -10.17734        -1.72215
   C        1.87232        -9.92643        -2.43070
   C        1.85870        -9.03627        -3.52806
   C        3.04635        -8.72138        -4.27876
   N        2.92806        -8.12207        -5.47433
   C        1.77000        -7.64002        -5.83709
   C        0.65130        -7.68535        -4.93137
   N        0.70559        -8.42893        -3.85812
   C       -0.51541        -6.93331        -5.20694
   N       -1.44235        -6.30680        -5.45608
   C        1.61387        -7.07064        -7.12308
   N        1.44167        -6.59611        -8.15173
   C        4.32931        -9.06274        -3.80051
   C        4.35220        -9.95213        -2.71431
   C        3.14423       -10.39802        -2.05052
   N        3.43255       -11.19271        -1.01314
   S        5.02291       -11.37386        -0.90655
   N        5.45003       -10.44522        -2.13533
   C        5.52328        -8.48428        -4.34557
   C        5.66623        -7.20324        -4.83993
   C        6.98727        -6.96170        -5.32445
   C        7.51017        -5.79399        -5.87770
   C        8.83693        -5.77527        -6.27979
   C        9.65794        -6.90842        -6.13013
   C        9.15836        -8.05983        -5.56727
   C        7.82903        -8.08444        -5.16249
   S        7.00592        -9.40797        -4.40290
   C        9.38189        -4.59935        -6.84490
   N        9.82512        -3.64503        -7.29997
   C        4.59799        -6.22192        -4.80014
   C        3.73879        -6.02926        -3.67546
   C        2.71017        -5.17299        -4.04193
   C        1.54662        -4.76802        -3.35473
   C        0.62691        -4.03052        -4.05100
   C       -0.66672        -3.53425        -3.68862
   C       -1.21721        -2.89050        -4.78106
   C       -0.27684        -2.96209        -5.85413
   C        0.85224        -3.65187        -5.43014
   C        2.02782        -4.02008        -6.10368
   C        2.94090        -4.78428        -5.41528
   C        4.14364        -5.43121        -5.83751
   C       -2.50591        -2.24840        -4.89377
   C       -3.41643        -2.17073        -3.92768
   H       -0.24358       -13.59999        11.40701
   H        0.05795       -14.97750        10.22711
   H       -0.38708       -11.13580        10.41351
   H       -0.23236        -9.91491         8.15368
   H       -0.00705        -9.30760         5.90235
   H        0.32937        -9.23569         3.35303
   H        0.82989       -10.84609         1.31896
   H        1.19317       -13.62807         2.24007
   H        1.51987       -12.73762        -3.03490
   H       -0.59371       -11.22905        -0.40720
   H       -0.09011        -9.39205        -1.83831
   H        6.88937        -4.91752        -5.98591
   H       10.68582        -6.85918        -6.45602
   H        9.78158        -8.93048        -5.43752
   H        3.87596        -6.48649        -2.71042
   H        1.38114        -5.07241        -2.32994
   H       -1.11804        -3.66276        -2.72282
   H       -0.43465        -2.55438        -6.83669
   H        2.18508        -3.74143        -7.13534
   H        4.55685        -5.37747        -6.82718
   H       -2.71363        -1.80774        -5.86065
   H       -3.25386        -2.59725        -2.95283
   H       -4.36047        -1.67762        -4.08135
*
