# ORCA input file
# SCF done       -205.850549585535          0.000367055169
! CAM-B3LYP def2-SVP def2/J RIJCOSX Grid4 TightSCF
%maxcore 5000
%tddft
    Mode sTDDFT
    Ethresh 5.0
    maxcore 5000
end

%pal
  nprocs 6
  end
* xyz 0 1
   C        3.14254        -7.83204        -3.29611
   C        3.56705        -9.06301        -2.98545
   C        4.21331        -9.49179        -1.77619
   C        4.53139       -10.80238        -1.74639
   C        4.16864       -11.52601        -2.91747
   S        3.39255       -10.44946        -4.07455
   C        4.36243       -12.85648        -3.16231
   C        3.97959       -13.58676        -4.32237
   C        4.27956       -14.90329        -4.27441
   C        4.91985       -15.32041        -3.06604
   S        5.14170       -13.92649        -2.00370
   C        5.34599       -16.56310        -2.75357
   C        5.99591       -16.89181        -1.49987
   C        5.50164       -16.58138        -0.18178
   C        4.18857       -16.18010         0.14558
   O        3.32490       -16.14413        -0.90187
   C        1.98849       -15.70579        -0.76993
   C        1.85185       -14.18703        -0.77339
   C        3.93539       -15.93710         1.48962
   C        4.94425       -16.09107         2.47401
   C        6.22537       -16.58191         2.15926
   C        6.46702       -16.84729         0.81976
   S        7.90187       -17.57011         0.11454
   C        7.22878       -17.46020        -1.46500
   O        7.03881       -16.78800         3.23047
   C        8.44563       -16.77484         3.08609
   C        8.97870       -15.41904         2.63853
   C        4.50932       -15.73848         3.77154
   C        3.20317       -15.33797         3.83760
   S        2.44800       -15.40025         2.25433
   C        2.50284       -14.90794         4.98961
   C        1.17627       -14.60374         5.02100
   C        0.44147       -14.13039         6.12663
   C        0.90035       -13.68078         7.34027
   C        0.07986       -13.19823         8.39440
   C        0.75635       -12.73114         9.47854
   C        2.16141       -12.81121         9.35305
   S        2.58493       -13.53213         7.81192
   C        3.13406       -12.39259        10.23363
   C        2.98043       -11.78802        11.50346
   C        4.15351       -11.45109        12.09948
   C        5.32084       -11.76169        11.34442
   S        4.83566       -12.53373         9.83801
   C        6.59626       -11.48076        11.73654
   C        7.81903       -11.71627        11.04433
   C        9.11396       -11.35312        11.58271
   C        9.46247       -10.82120        12.83249
   O        8.50418       -10.55719        13.78526
   C        8.55805       -11.35106        14.96251
   C        8.31966       -12.83130        14.68588
   C       10.80225       -10.52356        13.04229
   C       11.83987       -10.74691        12.09177
   C       11.49641       -11.34664        10.86657
   C       10.14729       -11.61533        10.66417
   S        9.55276       -12.33452         9.19305
   C        7.94643       -12.25740         9.78897
   O       12.27956       -11.65539         9.79987
   C       13.66766       -11.90312         9.90685
   C       14.00706       -13.03163        10.87281
   C       13.08764       -10.27605        12.57370
   C       13.04296        -9.72099        13.82456
   S       11.41995        -9.76530        14.48643
   C       14.09212        -9.14715        14.58870
   C       15.38352        -9.04290        14.17305
   C       16.41271        -8.45878        14.93192
   C       17.70766        -8.34669        14.50038
   C       18.79801        -7.76200        15.19543
   C       19.97470        -7.78285        14.51731
   C       19.89419        -8.38917        13.23811
   S       18.25506        -8.93288        12.93350
   C       20.90056        -8.56253        12.31985
   C       22.26152        -8.16415        12.44018
   C       23.02892        -8.46802        11.37069
   C       22.33163        -9.13753        10.30991
   S       20.63538        -9.34716        10.77346
   C       22.82842        -9.55915         9.13934
   H        3.26863        -7.01813        -2.60415
   H        2.66776        -7.61646        -4.23561
   H        4.40767        -8.79053        -0.98406
   H        5.01758       -11.30607        -0.92830
   H        3.49042       -13.08904        -5.14222
   H        4.06176       -15.61307        -5.05303
   H        5.28204       -17.33823        -3.50474
   H        1.52285       -16.13524         0.12246
   H        1.49001       -16.12255        -1.65103
   H        2.44876       -13.74541         0.02007
   H        0.81097       -13.91812        -0.61934
   H        2.18365       -13.78002        -1.72494
   H        7.82086       -17.78008        -2.30027
   H        8.78126       -17.56529         2.40502
   H        8.80864       -17.00915         4.09077
   H        8.62256       -15.17533         1.64050
   H       10.06445       -15.44143         2.62583
   H        8.64667       -14.64381         3.32518
   H        5.15712       -15.78546         4.62722
   H        3.10182       -14.85363         5.88653
   H        0.61107       -14.74859         4.10739
   H       -0.63279       -14.07928         5.99722
   H       -0.99295       -13.20670         8.30828
   H        0.28761       -12.32153        10.35561
   H        2.00947       -11.61707        11.93337
   H        4.23172       -10.97643        13.06206
   H        6.69785       -10.98261        12.68961
   H        7.76613       -10.94387        15.59562
   H        9.51845       -11.21708        15.47522
   H        7.36327       -12.97815        14.18966
   H        8.32178       -13.38119        15.62281
   H        9.10509       -13.22676        14.04452
   H        7.16271       -12.61318         9.15188
   H       14.20948       -10.98469        10.16008
   H       13.94960       -12.18760         8.88893
   H       13.73622       -12.77095        11.89330
   H       15.07420       -13.23186        10.83472
   H       13.46752       -13.93253        10.59014
   H       14.00433       -10.31675        12.01895
   H       13.82122        -8.76667        15.56462
   H       15.66365        -9.42016        13.19855
   H       16.17383        -8.06770        15.91203
   H       18.66907        -7.34307        16.17807
   H       20.89821        -7.38233        14.89555
   H       22.62108        -7.66270        13.32129
   H       24.07728        -8.24473        11.28127
   H       23.86626        -9.41106         8.89850
   H       22.21442       -10.05360         8.40925
*
