# ORCA input file
# SCF done       -166.387674943200          0.000550129058
! CAM-B3LYP def2-SVP def2/J RIJCOSX Grid4 TightSCF
%maxcore 5000
%tddft
    Mode sTDDFT
    Ethresh 5.0
    maxcore 5000
end

%pal
  nprocs 6
  end
* xyz 0 1
   C        9.13073        13.23317       -19.61571
   O        9.08555        13.40345       -20.94402
   C       10.11302        14.20554       -21.27754
   C       10.82338        14.55787       -20.17771
   C       10.18705        13.92200       -19.06639
   C       10.60367        14.01689       -17.69628
   C       10.01817        13.38725       -16.65632
   C       10.47116        13.50907       -15.31366
   C        9.89593        12.85812       -14.27300
   C       10.31452        12.93797       -12.92075
   S        9.47418        11.97181       -11.71165
   C       10.49921        12.56757       -10.47788
   C       11.43851        13.47256       -10.97953
   C       11.33759        13.68245       -12.34890
   C       12.26958        13.92240        -9.84845
   O       13.18607        14.71048        -9.87061
   C       11.71509        13.17270        -8.65370
   C       10.66492        12.38783        -9.08236
   C       12.20504        13.25278        -7.33637
   C       13.25598        14.03625        -6.94975
   C       13.77897        14.10225        -5.64609
   S       15.15232        15.16297        -5.33847
   C       15.19389        14.68254        -3.69577
   C       14.18665        13.74884        -3.40145
   C       13.39467        13.42432        -4.48667
   C       14.32203        13.40047        -1.97349
   O       13.65561        12.63996        -1.31255
   C       15.49966        14.21538        -1.49562
   C       15.97778        14.96284        -2.55765
   C       15.94415        14.12292        -0.16738
   C       17.01188        14.80313         0.35260
   C       17.44639        14.66643         1.69017
   C       18.53538        15.33321         2.23496
   O       18.93191        15.14467         3.54335
   C       18.19080        14.27007         4.27448
   C       17.06849        13.59155         3.71885
   C       16.46106        12.76510         4.60589
   S       17.25293        12.80390         6.13738
   C       18.41422        13.94582         5.57267
   O       16.68391        13.78115         2.43023
   C       19.34463        16.26061         1.52451
   C       20.42544        16.87678         2.07030
   C       21.28683        17.82208         1.42679
   C       22.37704        18.30586         2.12511
   C       23.25151        19.23605         1.53701
   C       24.39244        19.85856         2.02673
   C       24.99813        19.64207         3.37461
   C       26.45989        19.17901         3.27627
   N       26.57215        18.11423         2.29474
   C       24.86406        20.89558         4.25589
   N       23.46585        21.07897         4.60339
   C       24.85827        20.74891         0.99092
   C       25.88885        21.61495         0.93611
   C       26.13694        22.47347        -0.25552
   C       25.21807        22.22367        -1.40790
   C       24.18858        21.36145        -1.34212
   C       23.95367        20.61285        -0.16278
   C       22.98373        19.69756         0.18085
   C       21.86177        19.18754        -0.51548
   C       21.05117        18.28406         0.08572
   C       25.99632        23.92042         0.17314
   C       26.97392        24.80497         0.15140
   H        8.37307        12.61520       -19.17722
   H       10.22776        14.44736       -22.31558
   H       11.69035        15.18509       -20.14064
   H       11.46287        14.64960       -17.51450
   H        9.16242        12.74927       -16.83031
   H       11.32102        14.15436       -15.14018
   H        9.04952        12.21136       -14.46688
   H       11.97267        14.34263       -12.90986
   H       10.06960        11.74018        -8.46468
   H       11.70104        12.63377        -6.60409
   H       13.73958        14.65212        -7.69443
   H       12.57731        12.72765        -4.45726
   H       16.80833        15.64402        -2.53880
   H       15.38703        13.44801         0.46800
   H       17.56165        15.47255        -0.28624
   H       15.60453        12.14401         4.44897
   H       19.18359        14.30845         6.22134
   H       19.06376        16.46309         0.50621
   H       20.67821        16.63553         3.09416
   H       22.55168        17.96982         3.13733
   H       24.42924        18.85078         3.87299
   H       26.79866        18.88531         4.28601
   H       27.09842        19.99963         2.94055
   H       25.95745        17.34478         2.53847
   H       27.52099        17.75856         2.26209
   H       25.30297        21.76117         3.73290
   H       25.41933        20.74577         5.18727
   H       22.91149        21.18154         3.75897
   H       23.34221        21.91393         5.16503
   H       26.56774        21.76173         1.76399
   H       27.17599        22.32441        -0.58030
   H       25.41066        22.80493        -2.29713
   H       23.53347        21.21922        -2.18978
   H       21.66223        19.52717        -1.52163
   H       20.19582        17.90188        -0.44859
   H       25.00220        24.19231         0.50075
   H       27.96931        24.55120        -0.17539
   H       26.81926        25.82597         0.45692
*
