# ORCA input file
# SCF done       -134.441079042315          0.000284715603
! CAM-B3LYP def2-SVP def2/J RIJCOSX Grid4 TightSCF
%maxcore 5000
%tddft
    Mode sTDDFT
    Ethresh 5.0
    maxcore 5000
end

%pal
  nprocs 6
  end
* xyz 0 1
   C       -3.33812        -1.07388         0.57340
   C       -3.56637         0.21912         1.10507
   C       -2.64601         0.78081         1.95504
   C       -1.46289         0.08752         2.27268
   C       -1.23111        -1.20180         1.71588
   C       -2.20221        -1.76917         0.86557
   N       -0.10209        -1.88342         1.99900
   C        0.75641        -1.30889         2.79748
   C        0.52662        -0.03225         3.35224
   N       -0.55583         0.65166         3.09909
   C       -4.81290         0.91964         0.75064
   C       -5.22125         1.00188        -0.61331
   C       -6.45420         1.51469        -0.94160
   C       -7.30605         2.00959         0.06121
   C       -6.87326         1.98781         1.41774
   C       -5.62331         1.42466         1.73524
   N       -7.65804         2.47876         2.39970
   C       -8.81790         2.96429         2.04853
   C       -9.24940         2.98108         0.70488
   N       -8.51330         2.51703        -0.26787
   C       -4.32119         0.57408        -1.66892
   S       -2.62517         1.12644        -1.67252
   C       -2.41381         0.21639        -3.10832
   C       -3.60401        -0.41100        -3.47148
   N       -4.64696        -0.17944        -2.66842
   C       -3.41071        -1.26260        -4.68600
   C       -1.94630        -1.06006        -4.94658
   C       -1.40396        -0.16712        -4.02450
   S        0.26524         0.11513        -4.28594
   C        0.25733        -1.01886        -5.62113
   C       -0.99761        -1.54990        -5.84191
   C        1.49333        -1.32767        -6.27316
   C        1.73087        -2.49192        -6.89769
   C        2.99385        -2.85043        -7.52223
   C        3.48330        -4.18716        -7.39641
   C        4.62356        -4.56814        -8.05785
   C        5.34263        -3.64709        -8.84173
   C        4.88318        -2.30239        -8.93038
   C        3.70247        -1.93330        -8.26485
   N        5.56262        -1.39022        -9.65898
   C        6.64129        -1.80060       -10.26922
   C        7.09231        -3.13468       -10.18551
   N        6.46023        -4.03956        -9.48705
   C        2.80888        -5.13935        -6.49840
   C        2.57007        -6.46750        -6.92178
   C        1.96760        -7.37716        -6.10085
   C        1.57423        -7.00117        -4.80033
   C        1.81582        -5.66869        -4.36284
   C        2.44020        -4.75542        -5.22954
   N        1.44743        -5.27111        -3.12512
   C        0.87454        -6.15947        -2.36065
   C        0.64108        -7.48318        -2.79245
   N        0.97834        -7.89581        -3.98416
   H       -4.09103        -1.50863        -0.06860
   H       -2.79198         1.76488         2.37271
   H       -2.01750        -2.75239         0.46175
   H        1.65961        -1.86213         3.01854
   H        1.24766         0.42768         4.01509
   H       -6.77543         1.56047        -1.96996
   H       -5.33605         1.36932         2.77395
   H       -9.43981         3.35722         2.84179
   H      -10.21531         3.38517         0.43251
   H       -4.02590        -0.92351        -5.52176
   H       -3.66067        -2.30694        -4.49200
   H       -1.20547        -2.24834        -6.63189
   H        2.28806        -0.60179        -6.16355
   H        0.96227        -3.25280        -6.91151
   H        5.01540        -5.56977        -7.96644
   H        3.34850        -0.92041        -8.37845
   H        7.18064        -1.06363       -10.84947
   H        7.98659        -3.45726       -10.70192
   H        2.86066        -6.74988        -7.92309
   H        1.77856        -8.39104        -6.41757
   H        2.63390        -3.76010        -4.86133
   H        0.58223        -5.83247        -1.37150
   H        0.16731        -8.20785        -2.14353
*
