# ORCA input file
# SCF done       -189.687074289321          0.000650043118
! CAM-B3LYP def2-SVP def2/J RIJCOSX Grid4 TightSCF
%maxcore 5000
%tddft
    Mode sTDDFT
    Ethresh 5.0
    maxcore 5000
end

%pal
  nprocs 6
  end
* xyz 0 1
   C       -7.25332         5.64129         4.13265
   O       -8.53567         5.34912         3.78423
   C       -8.44931         4.27308         2.98293
   C       -9.24613         3.37052         2.23640
   C      -10.70247         3.35780         2.10478
   O      -11.33426         2.42245         1.64083
   N      -11.30632         4.47395         2.56696
   C       -8.31885         2.50494         1.65311
   O       -7.04098         2.81102         2.02472
   C       -7.12603         3.88720         2.82556
   C       -6.34275         4.78571         3.58160
   C       -8.49242         1.40521         0.75956
   S       -9.96913         0.52008         0.65441
   C       -9.24573        -0.63597        -0.43746
   C       -7.91459        -0.33326        -0.69719
   C       -7.51147         0.84774        -0.04913
   C       -6.19512         1.49650        -0.38370
   C       -6.32198         2.93611        -0.44974
   N       -6.41145         4.06788        -0.58609
   C       -5.75843         1.00591        -1.77405
   C       -5.61086        -0.50567        -1.76297
   C       -6.89725        -1.24431        -1.34872
   O       -6.46801        -2.21666        -0.39983
   C       -7.32861        -3.30329        -0.18079
   C      -10.14021        -1.63373        -0.92543
   C      -10.02175        -2.40830        -2.02709
   C      -11.01879        -3.34586        -2.41874
   S      -12.50850        -3.48539        -1.53887
   C      -13.13760        -4.68985        -2.62376
   C      -12.23420        -4.93416        -3.64676
   C      -11.02059        -4.21763        -3.49857
   C       -9.81971        -4.43209        -4.36924
   F       -8.66379        -4.25275        -3.69387
   F       -9.74320        -5.67465        -4.85338
   F       -9.75827        -3.58742        -5.41310
   C      -12.58773        -5.72967        -4.86741
   F      -13.89210        -5.60899        -5.17573
   F      -11.93496        -5.31562        -5.95957
   F      -12.34936        -7.04561        -4.74110
   C      -14.40540        -5.24271        -2.29240
   C      -14.92648        -6.43201        -2.67984
   C      -16.20427        -6.84960        -2.22282
   O      -16.92114        -6.06088        -1.39674
   C      -18.09213        -6.67775        -1.11331
   C      -18.14065        -7.89937        -1.77260
   C      -16.93458        -8.00932        -2.47630
   C      -16.50299        -9.14543        -3.33122
   F      -15.33469        -9.67907        -2.92488
   F      -17.39587       -10.14529        -3.33362
   F      -16.32175        -8.79216        -4.61579
   C      -19.02201        -6.05340        -0.24774
   C      -18.75969        -4.85807         0.35512
   C      -19.62322        -4.18355         1.22908
   C      -19.29758        -3.00138         1.84731
   C      -20.10022        -2.25575         2.74823
   C      -19.50825        -1.12963         3.22708
   C      -18.19761        -0.91323         2.73428
   S      -17.75252        -2.19657         1.62553
   C      -17.33652         0.11363         3.04390
   C      -17.57512         1.18879         3.94755
   C      -16.53775         2.04316         4.07794
   C      -15.39108         1.71224         3.27921
   S      -15.73362         0.24281         2.35258
   C      -14.22722         2.37219         3.21166
   H       -7.11692         6.48622         4.77711
   H      -10.78064         5.24372         2.94160
   H      -12.30668         4.54852         2.49179
   H       -5.28082         4.80917         3.70115
   H       -5.43331         1.24452         0.36430
   H       -4.80948         1.46948        -2.04911
   H       -6.50994         1.30677        -2.50845
   H       -4.84436        -0.79161        -1.03974
   H       -5.29022        -0.85310        -2.74474
   H       -7.33346        -1.75613        -2.21503
   H       -6.78020        -3.98803         0.46413
   H       -7.57963        -3.80861        -1.12007
   H       -8.25481        -2.99978         0.31996
   H      -11.05504        -1.71910        -0.34838
   H       -9.16737        -2.31307        -2.67500
   H      -14.97673        -4.65254        -1.58761
   H      -14.40330        -7.11785        -3.32570
   H      -18.93538        -8.61577        -1.74613
   H      -19.95164        -6.57390        -0.07553
   H      -17.80529        -4.38820         0.15377
   H      -20.59388        -4.61228         1.43892
   H      -21.09058        -2.58238         3.01267
   H      -19.97345        -0.45080         3.91918
   H      -18.50983         1.28444         4.47074
   H      -16.53078         2.90937         4.71563
   H      -14.07963         3.25258         3.81476
   H      -13.41670         2.05264         2.58032
*
