# ORCA input file
# SCF done       -195.970707126515          0.000526814126
! CAM-B3LYP def2-SVP def2/J RIJCOSX Grid4 TightSCF
%maxcore 5000
%tddft
    Mode sTDDFT
    Ethresh 5.0
    maxcore 5000
end

%pal
  nprocs 6
  end
* xyz 0 1
   C        9.19409        -8.59972        -0.89775
   C        9.19602        -9.84789        -0.33991
   F       10.24531       -10.66557        -0.55028
   C        8.14100       -10.31871         0.45242
   C        7.06848        -9.50084         0.67777
   C        7.01542        -8.20351         0.12927
   C        8.09784        -7.74411        -0.67571
   C        8.06463        -6.44728        -1.24154
   C        6.98966        -5.63709        -0.99954
   C        5.91681        -6.09708        -0.18246
   C        5.91600        -7.34648         0.36509
   C        4.91390        -5.02060        -0.04933
   O        3.85112        -5.06332         0.53018
   C        5.51278        -3.84537        -0.73214
   C        6.67386        -4.28550        -1.45601
   C        7.25323        -3.65737        -2.53192
   C        6.72570        -2.49563        -3.12471
   N        6.31131        -1.56348        -3.65279
   C        8.40381        -4.12126        -3.19338
   N        9.36875        -4.42104        -3.74070
   C        4.97410        -2.60348        -0.50558
   C        5.55751        -1.34260        -0.65790
   C        6.91083        -0.96995        -0.79573
   C        7.08647         0.43112        -0.92022
   N        8.28726         0.98920        -1.09181
   C        9.31957         0.17764        -1.12957
   C        9.16139        -1.22888        -0.93192
   N        7.98177        -1.78122        -0.76040
   C       10.33747        -2.14369        -0.91272
   C       10.65729         0.79029        -1.36243
   C        5.88018         1.15549        -0.84153
   S        4.54827         0.08849        -0.61121
   C        5.77584         2.53754        -0.93534
   C        4.59836         3.30247        -0.81936
   C        4.84258         4.69205        -0.92786
   N        3.85379         5.59099        -0.84810
   C        2.64034         5.11803        -0.67227
   C        2.39419         3.71102        -0.55131
   N        3.36219         2.82562        -0.62186
   C        1.01556         3.18786        -0.34189
   C        1.52701         6.10290        -0.60358
   C        6.20126         4.99259        -1.14770
   S        7.16484         3.54944        -1.20432
   C        6.69965         6.27261        -1.34876
   C        8.00979         6.63256        -1.71949
   C        8.16852         8.03140        -1.89185
   N        9.35691         8.54755        -2.23944
   C       10.34276         7.70060        -2.42383
   C       10.17079         6.28862        -2.26693
   N        9.01671         5.77238        -1.91148
   C       11.29461         5.33771        -2.49908
   C       11.66205         8.27555        -2.81120
   C        6.97961         8.76062        -1.66826
   S        5.69223         7.66736        -1.21583
   C        6.89720        10.15382        -1.69038
   C        5.81113        10.97379        -1.51305
   C        6.01917        12.35750        -1.01932
   O        7.05713        12.98058        -0.99995
   C        4.70264        12.77798        -0.49227
   C        4.36982        13.91545         0.18308
   C        3.04009        14.08746         0.63170
   C        2.07740        13.07009         0.36927
   C        0.75767        13.24348         0.82891
   C        0.42864        14.38056         1.51269
   C        1.35937        15.39337         1.77851
   C        2.64531        15.24091         1.33923
   F       -0.83281        14.54633         1.95411
   C        2.44800        11.90651        -0.34565
   C        3.73982        11.76532        -0.77119
   C        4.39551        10.71404        -1.54590
   C        3.75243         9.81652        -2.36439
   C        4.41656         9.08814        -3.37130
   N        4.91375         8.53719        -4.24767
   C        2.36569         9.58888        -2.34549
   N        1.24639         9.32876        -2.33010
   H       10.02304        -8.27247        -1.50582
   H        8.19755       -11.31293         0.86644
   H        6.24304        -9.84091         1.28501
   H        8.89779        -6.12373        -1.84553
   H        5.08860        -7.67900         0.97393
   H        3.97501        -2.61583        -0.07981
   H       11.09704        -1.78590        -0.22042
   H       10.78229        -2.19745        -1.90621
   H       10.01659        -3.13955        -0.61982
   H       10.53572         1.86224        -1.48882
   H       11.11600         0.36662        -2.25442
   H       11.32001         0.59877        -0.51965
   H        0.36892         3.48459        -1.16612
   H        0.59081         3.58883         0.57711
   H        1.05048         2.10399        -0.28197
   H        1.92136         7.10817        -0.71790
   H        1.00402         6.02401         0.34828
   H        0.80579         5.91634        -1.39764
   H       11.67177         5.43577        -3.51573
   H       10.93779         4.32376        -2.34349
   H       12.11647         5.54244        -1.81447
   H       11.58095         9.35754        -2.85611
   H       11.96813         7.89704        -3.78539
   H       12.42720         7.99837        -2.08773
   H        7.85837        10.65577        -1.75430
   H        5.11084        14.67692         0.37497
   H        0.01355        12.48587         0.63859
   H        1.04225        16.26877         2.32270
   H        3.38056        16.00763         1.53215
   H        1.70165        11.14956        -0.52899
*
