# ORCA input file
# SCF done       -266.469381862688          0.000705263344
! CAM-B3LYP def2-SVP def2/J RIJCOSX Grid4 TightSCF
%maxcore 5000
%tddft
    Mode sTDDFT
    Ethresh 5.0
    maxcore 5000
end

%pal
  nprocs 6
  end
* xyz 0 1
   C        8.33658         9.19239        -0.24245
   C        7.47539        10.25116        -0.32531
   F        7.89902        11.40834        -0.86015
   C        6.15090        10.18071         0.13032
   C        5.70045         9.01227         0.67830
   C        6.54566         7.88850         0.78818
   C        7.89022         7.98034         0.32028
   C        8.75819         6.86996         0.42406
   C        8.29767         5.70509         0.98042
   C        6.94786         5.61541         1.43178
   C        6.08873         6.67394         1.34402
   C        6.68256         4.25799         1.92993
   O        5.67528         3.81599         2.42075
   C        7.93300         3.48513         1.62198
   C        8.96467         4.43407         1.22526
   C       10.31383         4.22061         1.21552
   C       10.93993         3.02507         1.62141
   N       11.51176         2.08734         1.95614
   C       11.26311         5.20054         0.84666
   N       12.07683         5.95085         0.54617
   C        7.87221         2.14494         1.57930
   C        8.84188         1.20221         1.04973
   C        9.29954         0.14498         1.84573
   C        8.91834        -0.00299         3.26236
   O        8.21876         0.72289         3.90395
   S        9.69248        -1.47793         3.91525
   C       10.50793        -1.86939         2.36118
   O       11.14507        -2.86473         2.19421
   C       10.20546        -0.80399         1.38524
   C       10.73792        -0.74695         0.08975
   C       10.27862         0.30430        -0.71450
   C        9.35014         1.24430        -0.25754
   C        8.97368         2.26022        -1.25949
   O        8.18381         3.15436        -1.15119
   S        9.91077         1.98344        -2.75674
   C       10.77624         0.55572        -2.08175
   O       11.61768        -0.02765        -2.69197
   C       11.71793        -1.71415        -0.37752
   C       11.59015        -2.57896        -1.41724
   C       12.72085        -3.41758        -1.59256
   C       12.91843        -4.41502        -2.56928
   C       11.99340        -4.63176        -3.65731
   C       11.66780        -5.81155        -4.27253
   C       10.79811        -5.63233        -5.36465
   C       10.46143        -4.32825        -5.61112
   S       11.21595        -3.29031        -4.45862
   C        9.59035        -3.80031        -6.69108
  Cl       10.20866        -6.93655        -6.31624
   C       14.09374        -5.16085        -2.45883
   C       15.08279        -4.90525        -1.47997
   C       14.91767        -3.85747        -0.55205
   C       13.71133        -3.16345        -0.61454
   S       13.24409        -1.87000         0.44554
   C       15.94630        -3.53754         0.41092
   C       17.30085        -3.50651         0.21632
   C       18.00734        -3.16343         1.38547
   C       17.21412        -2.93571         2.47707
   S       15.55056        -3.13589         2.05934
   C       17.63140        -2.58570         3.85768
  Cl       19.72340        -3.04192         1.43242
   C       16.15430        -5.83051        -1.56055
   C       16.02013        -6.72242        -2.57646
   S       14.55675        -6.47873        -3.49129
   C       16.92149        -7.80917        -2.92094
   C       17.24721        -8.82722        -2.01323
   C       16.66817        -8.92656        -0.65783
   O       15.85167        -8.23036        -0.13810
   S       17.37257       -10.36119         0.16992
   C       18.35409       -10.83109        -1.24783
   O       19.08410       -11.78079        -1.23659
   C       18.09819        -9.88362        -2.35042
   C       18.64416       -10.00992        -3.63766
   C       18.32214        -8.98571        -4.53647
   C       17.50442        -7.91490        -4.19195
   C       17.34952        -6.90912        -5.26057
   O       16.81457        -5.84337        -5.19870
   S       18.17153        -7.50752        -6.74269
   C       18.76421        -8.99482        -5.94350
   O       19.40334        -9.83868        -6.49743
   C       19.51492       -11.09696        -4.04798
   C       19.30791       -12.41961        -3.94619
   C       20.46910       -13.35386        -4.13246
   O       21.52006       -13.08892        -4.65749
   C       20.05670       -14.59938        -3.46852
   C       20.79932       -15.71861        -3.21919
   C       20.21183       -16.79368        -2.51762
   C       18.85985       -16.68401        -2.07559
   C       18.28331       -17.75651        -1.36684
   C       19.02863       -18.87607        -1.12082
   C       20.35840       -19.00306        -1.54789
   C       20.93416       -17.97200        -2.23629
   F       18.48080       -19.90062        -0.44638
   C       18.11396       -15.51508        -2.34792
   C       18.70024       -14.48915        -3.04228
   C       18.17495       -13.19834        -3.46368
   C       16.85626       -12.84579        -3.51609
   C       16.36804       -11.64835        -4.07650
   N       15.90600       -10.70031        -4.53039
   C       15.80367       -13.66833        -3.05481
   N       14.91209       -14.28722        -2.68429
   H        9.34981         9.28343        -0.60140
   H        5.51767        11.04876         0.03752
   H        4.68474         8.93387         1.03536
   H        9.76448         6.96360         0.04788
   H        5.07120         6.58316         1.69342
   H        6.96349         1.70694         1.98383
   H       10.69943        -2.64165        -2.01418
   H       11.99591        -6.77853        -3.94010
   H       10.05725        -3.96059        -7.66335
   H        9.41800        -2.73610        -6.55677
   H        8.63420        -4.32290        -6.69326
   H       17.77627        -3.66664        -0.73371
   H       17.85053        -3.48846         4.42989
   H       16.84103        -2.04180         4.36840
   H       18.53263        -1.97610         3.83109
   H       16.98477        -5.83604        -0.87944
   H       20.46716       -10.80378        -4.48122
   H       21.82479       -15.78015        -3.55126
   H       17.26217       -17.69435        -1.02454
   H       20.89684       -19.91003        -1.32305
   H       21.95658       -18.04646        -2.57451
   H       17.09962       -15.45314        -1.98704
*
