# ORCA input file
# SCF done       -212.243526447309          0.000675779038
! CAM-B3LYP def2-SVP def2/J RIJCOSX Grid4 TightSCF
%maxcore 5000
%tddft
    Mode sTDDFT
    Ethresh 5.0
    maxcore 5000
end

%pal
  nprocs 6
  end
* xyz 0 1
   C        3.99119        -7.35765         8.59403
   C        3.42555        -8.07528         9.61089
   F        3.03606        -7.44129        10.73185
   C        3.22972        -9.46099         9.53505
   C        3.61945       -10.12265         8.40402
   C        4.20804        -9.43220         7.32463
   C        4.39799        -8.02273         7.42102
   C        4.98827        -7.30821         6.35221
   C        5.37136        -7.98174         5.22422
   C        5.16839        -9.38951         5.12972
   C        4.60777       -10.10482         6.14842
   C        5.62092        -9.86113         3.80753
   O        5.64183       -10.99447         3.38549
   C        5.98664        -8.62470         3.06191
   C        6.02165        -7.52309         3.99808
   C        6.71897        -6.35386         3.85970
   C        7.60407        -6.07991         2.79528
   N        8.41988        -5.83107         2.02642
   C        6.72474        -5.32620         4.82426
   N        6.74101        -4.44584         5.56132
   C        6.04774        -8.66979         1.70093
   C        5.97984        -7.59704         0.79586
   S        6.10619        -7.92437        -0.95872
   C        5.85868        -6.25919        -1.22208
   C        5.69904        -5.58536         0.00617
   N        5.76484        -6.33718         1.08566
   C        5.50601        -4.12046        -0.21023
   C        5.54499        -4.04409        -1.70758
   C        5.75548        -5.31412        -2.26226
   S        5.78415        -5.28349        -3.97486
   C        5.50923        -3.55404        -3.96174
   C        5.41252        -3.05445        -2.66926
   C        5.37784        -2.87655        -5.20181
   C        5.19577        -1.54571        -5.35176
   C        5.00153        -0.95727        -6.63510
   O        4.83473         0.40048        -6.71479
   C        4.62943         0.64548        -8.02701
   C        4.68497        -0.60704        -8.70881
   N        4.92650        -1.57599        -7.77531
   C        4.48935        -0.70864       -10.07639
   C        4.23328         0.49347       -10.71686
   C        4.19128         1.73343       -10.01151
   C        4.38829         1.85364        -8.64987
   O        3.91223         2.70045       -10.91088
   C        3.78534         2.04180       -12.10510
   N        3.96934         0.75675       -12.03129
   C        3.44954         2.79438       -13.26698
   C        3.24611         2.21215       -14.46968
   C        2.86910         2.94075       -15.62371
   S        2.54641         2.07521       -17.15050
   C        2.16890         3.59049       -17.85012
   C        2.31714         4.61604       -16.90176
   N        2.69915         4.23428       -15.69303
   C        1.98365         5.94607       -17.49649
   C        1.61743         5.55100       -18.89585
   C        1.73870         4.16422       -19.06503
   S        1.30222         3.66118       -20.63873
   C        0.97733         5.33142       -21.10549
   C        1.18854         6.20195       -20.04024
   C        0.50472         5.54292       -22.42233
   C        0.42083         6.69951       -23.14578
   C        0.96268         7.94134       -22.76505
   C        0.81831         9.17458       -23.33806
   C        1.20580        10.34998       -22.51200
   O        1.86019        10.32693       -21.49145
   C        0.56222        11.51117       -23.14911
   C        0.51476        12.80737       -22.72426
   C       -0.21397        13.75332       -23.47878
   C       -0.89083        13.32948       -24.65911
   C       -1.62817        14.27372       -25.39956
   C       -1.67468        15.57213       -24.97406
   C       -1.01278        16.00911       -23.81857
   C       -0.29424        15.10522       -23.08675
   F       -2.37879        16.47571       -25.68010
   C       -0.81663        11.98037       -25.07912
   C       -0.09158        11.08501       -24.34072
   C        0.18950         9.66225       -24.54418
   C        0.06104         9.01494       -25.74624
   C        0.58343         7.73949       -26.04062
   N        1.02346         6.72900       -26.36285
   C       -0.51972         9.59708       -26.89244
   N       -0.99723        10.00819       -27.85219
   H        4.12900        -6.29192         8.68845
   H        2.77686        -9.97363        10.36878
   H        3.47924       -11.18990         8.32180
   H        5.11238        -6.24125         6.44850
   H        4.46866       -11.17163         6.05735
   H        6.05329        -9.66197         1.26333
   H        6.31101        -3.54788         0.25532
   H        4.56147        -3.76314         0.20343
   H        5.24158        -2.01574        -2.45590
   H        5.41100        -3.48089        -6.09774
   H        5.17061        -0.86522        -4.51486
   H        4.52279        -1.64780       -10.59853
   H        4.34856         2.79304        -8.12646
   H        3.34142         3.86111       -13.14477
   H        3.35544         1.14207       -14.56624
   H        2.83612         6.62724       -17.46858
   H        1.15803         6.42958       -16.97149
   H        0.98941         7.25640       -20.08200
   H        0.15867         4.64244       -22.91563
   H       -0.08481         6.63226       -24.09642
   H        1.55226         7.96484       -21.85702
   H        1.02594        13.10745       -21.82177
   H       -2.14692        13.97401       -26.29673
   H       -1.08496        17.04644       -23.53255
   H        0.22405        15.41716       -22.19244
   H       -1.34670        11.68953       -25.97189
*
