# ORCA input file
# SCF done       -201.041199271414          0.000952021436
! CAM-B3LYP def2-SVP def2/J RIJCOSX Grid4 TightSCF
%maxcore 5000
%tddft
    Mode sTDDFT
    Ethresh 5.0
    maxcore 5000
end

%pal
  nprocs 6
  end
* xyz 0 1
   C       -7.60388        -2.56723        -4.43401
   C       -8.12948        -1.98360        -5.55835
   C       -8.20486        -2.62065        -6.81595
   N       -8.29808        -3.07586        -7.86590
   C       -8.65599        -0.67869        -5.66736
   N       -9.09751         0.36356        -5.86416
   C       -7.03511        -3.90982        -4.38757
   C       -6.52814        -4.14038        -3.08745
   C       -5.92178        -5.31686        -2.71959
   C       -5.81083        -6.32158        -3.68538
   C       -6.32215        -6.08572        -4.98421
   C       -6.93423        -4.89457        -5.35409
   S       -6.08374        -7.45844        -6.02250
   C       -5.31059        -8.31727        -4.71642
   C       -5.23440        -7.61500        -3.56095
  Br       -4.67812       -10.05949        -5.00084
   C       -6.76217        -2.95296        -2.24564
   O       -6.42545        -2.84488        -1.08483
   C       -7.47584        -1.97995        -3.10652
   C       -7.98954        -0.75718        -2.76758
   C       -7.95742        -0.02872        -1.56049
   C       -7.38773        -0.26624        -0.32284
   C       -7.62189         0.75343         0.59615
  Cl       -7.14807         0.62038         2.23715
   C       -8.36435         1.81761         0.09261
   S       -8.79741         1.51177        -1.55459
   C       -8.80175         3.00114         0.75485
   C       -8.13262         3.81945         1.65312
  Cl       -6.47201         3.65013         2.03834
   C       -8.89701         4.87797         2.14512
   C      -10.17980         4.91469         1.62604
   S      -10.40668         3.61493         0.48083
   C      -11.25911         5.77925         1.89168
   C      -11.34108         6.73950         2.86645
   C      -12.47935         7.55025         3.12483
   C      -12.34787         8.38613         4.18945
   C      -11.09322         8.29508         4.83541
   S      -10.08249         7.11686         4.02677
   C      -10.64953         8.97141         5.95316
   C      -11.34844         9.90177         6.75677
   C      -10.63459        10.35120         7.82347
   C       -9.32322         9.81302         7.92590
   S       -9.04046         8.71245         6.59111
   C       -8.43240        10.08744         8.93069
   C       -7.11789         9.60228         9.07437
   C       -6.34057         8.82528         8.23221
   C       -5.06483         8.57236         8.73775
  Cl       -3.95869         7.53852         7.93605
   C       -4.81897         9.14403         9.97628
   S       -6.22901        10.00124        10.52492
   C       -3.65346         9.08309        10.79459
   C       -2.31565         9.20091        10.45201
  Cl       -1.76898         9.58154         8.87441
   C       -1.44400         9.06998        11.53506
   C       -2.08814         8.89040        12.74370
   S       -3.81604         8.84787        12.50569
   C       -1.45600         8.63927        13.98447
   C       -1.97816         8.60553        15.23958
   C       -3.23822         9.06131        15.78779
   C       -3.92401        10.18295        15.40210
   C       -5.10664        10.62986        16.02338
   N       -6.08195        11.01740        16.48838
   C       -3.44677        11.06776        14.41213
   N       -3.04755        11.83648        13.65938
   C       -3.47932         8.29597        17.00539
   C       -2.29161         7.59737        17.34228
   C       -1.27087         7.83693        16.30172
   O       -0.12692         7.44756        16.27719
   C       -2.19126         6.81957        18.47027
   C       -3.31782         6.71480        19.29309
   C       -4.50240         7.40491        18.93894
   C       -4.60136         8.20263        17.80530
   S       -5.77416         7.12156        20.08759
   C       -4.71224         6.09697        21.01753
   C       -3.46889         5.97201        20.49621
  Br       -5.34711         5.28774        22.58537
   H       -5.54633        -5.45586        -1.71790
   H       -7.30786        -4.76988        -6.35621
   H       -4.79079        -7.99147        -2.65733
   H       -8.52909        -0.23653        -3.54969
   H       -6.83799        -1.16070        -0.09265
   H       -8.50414         5.59891         2.83618
   H      -12.13935         5.63989         1.27802
   H      -13.36207         7.47624         2.51483
   H      -13.11367         9.05963         4.52954
   H      -12.35571        10.20241         6.53156
   H      -11.00267        11.05460         8.54911
   H       -8.77916        10.74928         9.71343
   H       -6.66786         8.44844         7.28228
   H       -0.37555         9.14117        11.44360
   H       -0.41817         8.32705        13.91262
   H       -1.27372         6.30593        18.71067
   H       -5.52347         8.70773        17.56873
   H       -2.68903         5.37982        20.93907
*
