# ORCA input file
# SCF done       -209.721737920768          0.000537893478
! CAM-B3LYP def2-SVP def2/J RIJCOSX Grid4 TightSCF
%maxcore 5000
%tddft
    Mode sTDDFT
    Ethresh 5.0
    maxcore 5000
end

%pal
  nprocs 6
  end
* xyz 0 1
   C       -4.52174        -2.07021        -0.88467
   C       -5.10408        -2.82875         0.09681
   C       -6.47643        -3.15063         0.13310
   N       -7.58037        -3.45512         0.20569
   C       -4.41441        -3.29073         1.23707
   N       -3.90223        -3.65140         2.19917
   C       -5.24503        -1.31795        -1.90665
   C       -4.41958        -0.27776        -2.37297
   C       -4.86263         0.62876        -3.31439
   C       -6.15395         0.48857        -3.80896
   C       -6.97566        -0.55182        -3.35811
   C       -6.52961        -1.45845        -2.40246
  Cl       -8.56268        -0.71931        -3.98886
  Cl       -6.74168         1.59790        -4.97913
   C       -3.09831        -0.35918        -1.71166
   O       -2.16062         0.39342        -1.82339
   C       -3.14784        -1.61453        -0.91276
   C       -1.99729        -2.14994        -0.41992
   C       -1.74281        -3.47547         0.00113
   C       -0.74162        -3.87576         0.87186
   C       -0.74777        -5.24915         1.08725
   C       -1.72764        -5.91825         0.32213
   S       -2.65804        -4.85077        -0.62217
   C       -1.65849        -7.30005         0.60913
   C       -0.66035        -7.50668         1.57905
   C       -0.04428        -6.22567         1.89710
   C        0.98028        -6.00137         2.76896
   C        1.57971        -7.04714         3.50214
   N        2.06704        -7.90070         4.09266
   C        1.51853        -4.71464         2.98378
   N        1.96697        -3.67378         3.15547
   C       -0.54309        -8.83789         1.96382
   C       -1.42644        -9.65848         1.27964
   S       -2.42427        -8.75628         0.14599
   C       -1.58723       -11.06550         1.43400
   C       -2.28156       -11.84308         0.53581
   C       -2.47535       -13.21555         0.65974
   C       -1.98087       -13.94673         1.82842
   C       -1.25522       -13.38883         2.82259
   S       -0.82604       -11.73136         2.87413
   C       -2.39755       -15.29149         1.63434
   C       -3.07627       -15.41452         0.41826
   C       -3.51878       -16.74095         0.20803
   C       -3.16569       -17.56002         1.23332
   S       -2.28729       -16.77097         2.49585
   C       -3.11384       -14.12090        -0.21982
   C       -3.59408       -13.78011        -1.50036
   C       -4.03346       -14.66016        -2.44368
   C       -4.40792       -14.30638        -3.75802
   C       -4.46492       -13.05073        -4.35561
   C       -4.81650       -13.12434        -5.69646
   C       -5.03813       -14.44388        -6.14349
   S       -4.81888       -15.58757        -4.89227
   C       -5.35727       -14.42000        -7.51617
   C       -5.34383       -13.06627        -7.94628
   C       -5.00480       -12.21621        -6.81842
   C       -4.86674       -10.85883        -6.80439
   C       -5.06354       -10.06733        -7.95582
   N       -5.22210        -9.41533        -8.88524
   C       -4.50366       -10.15923        -5.63516
   N       -4.19857        -9.59490        -4.68402
   C       -5.62726       -12.94436        -9.29085
   C       -5.84908       -14.18223        -9.91178
   S       -5.70303       -15.52183        -8.76777
   C       -6.14012       -14.28150       -11.27714
   C       -6.34906       -15.38728       -12.06746
   C       -6.63872       -15.37628       -13.48849
   C       -6.79700       -14.28554       -14.30318
   C       -7.07604       -14.36476       -15.68459
   N       -7.29946       -14.35482       -16.81031
   C       -6.71271       -12.93496       -13.90300
   N       -6.66377       -11.81301       -13.66261
   C       -6.74233       -16.76992       -13.92247
   C       -6.53095       -17.60743       -12.81339
   C       -6.28772       -16.77953       -11.61765
   O       -6.07743       -17.18944       -10.48885
   C       -6.56500       -18.98259       -12.91754
   C       -6.81911       -19.54113       -14.16414
   C       -7.03448       -18.71707       -15.27404
   C       -6.99764       -17.33059       -15.16271
  Cl       -7.35098       -19.41911       -16.80862
  Cl       -6.86894       -21.24839       -14.33881
   H       -4.22209         1.42691        -3.65475
   H       -7.18450        -2.25094        -2.07817
   H       -1.14126        -1.48149        -0.40799
   H       -0.07936        -3.17648         1.34949
   H        0.15170        -9.20913         2.69543
   H       -2.69520       -11.33197        -0.32382
   H       -0.88191       -13.95798         3.65918
   H       -4.08099       -17.09233        -0.63708
   H       -3.37221       -18.60769         1.33292
   H       -3.55326       -12.73129        -1.75887
   H       -4.06089       -15.71415        -2.21676
   H       -4.25442       -12.13855        -3.82936
   H       -5.67451       -12.01721        -9.83467
   H       -6.19398       -13.31654       -11.76640
   H       -6.39823       -19.60519       -12.05282
   H       -7.16780       -16.73097       -16.04155
*
