# ORCA input file
# SCF done       -169.882924878710          0.000535459185
! CAM-B3LYP def2-SVP def2/J RIJCOSX Grid4 TightSCF
%maxcore 5000
%tddft
    Mode sTDDFT
    Ethresh 5.0
    maxcore 5000
end

%pal
  nprocs 6
  end
* xyz 0 1
   C       -2.07070         0.82000         7.29901
   C       -2.14207         0.11452         6.13558
   C       -1.98395         0.95694         5.01897
   C       -1.79545         2.29540         5.38067
   S       -1.81271         2.51653         7.07246
   C       -1.64121         3.07787         4.19847
   C       -1.73138         2.21277         3.09310
   C       -1.95532         0.85471         3.57058
   C       -2.10949        -0.27128         2.81666
   C       -2.06669        -0.24701         1.40652
   N       -2.03336        -0.23918         0.26058
   C       -2.32481        -1.53952         3.39617
   N       -2.49995        -2.57256         3.86200
   C       -1.58241         2.88311         1.88481
   C       -1.37491         4.24193         2.07667
   S       -1.37802         4.70320         3.76634
   C       -1.18620         5.16805         1.01638
   C       -0.84006         6.51925         0.96222
   C       -0.48914         7.35145         2.10916
   O       -0.82586         7.08195         3.23722
   O        0.27457         8.42861         1.87565
   C       -0.81834         6.79432        -0.44454
   N       -1.10318         5.70734        -1.12111
   O       -1.31869         4.71057        -0.23938
   C       -0.59134         8.02831        -1.15851
   C       -0.00343         8.14256        -2.39469
   C       -0.01327         9.46484        -2.85566
   C       -0.64856        10.34517        -1.96476
   S       -1.21769         9.56142        -0.56083
   C       -0.61829        11.65194        -2.51520
   C        0.04164        11.59849        -3.75158
   C        0.44640        10.22053        -4.00589
   C        1.12325         9.75202        -5.09322
   C        1.51581        10.59938        -6.15075
   N        1.83727        11.28613        -7.01084
   C        1.48644         8.39500        -5.22843
   N        1.79401         7.29655        -5.34123
   C        0.12980        12.84132        -4.37539
   C       -0.46377        13.84432        -3.62756
   S       -1.13933        13.23120        -2.12314
   C       -0.55913        15.22871        -3.95228
   C       -1.23954        16.13280        -3.17025
   C       -1.35592        17.49238        -3.44424
   C       -0.72486        18.08288        -4.62742
   C       -0.01221        17.38143        -5.53643
   S        0.26449        15.69324        -5.43562
   C       -1.04552        19.46578        -4.57289
   C       -1.82995        19.73563        -3.44695
   C       -2.16178        21.10818        -3.36382
   C       -1.63661        21.81478        -4.39856
   S       -0.72153        20.86229        -5.51612
   C       -2.03821        18.50058        -2.72771
   C       -2.78453        18.29110        -1.54960
   C       -3.49559        19.24733        -0.88815
   C       -4.24706        18.98639         0.27434
   C       -4.98428        19.92567         0.93629
   C       -5.78134        19.62266         2.13993
   O       -5.88178        18.55075         2.69846
   C       -6.43604        20.89919         2.52053
   C       -7.29698        21.17065         3.56693
   C       -7.77825        22.46690         3.70109
   C       -7.40554        23.46355         2.80977
   C       -6.54031        23.19399         1.75731
   C       -6.06008        21.90497         1.62082
   C       -5.13836        21.35046         0.59832
   O       -4.62763        21.96552        -0.31831
   H       -2.15482         0.44288         8.29869
   H       -2.29801        -0.94763         6.08922
   H       -1.61248         2.43732         0.90709
   H        0.52944         8.52178         0.94727
   H        0.41356         7.29929        -2.91318
   H        0.59600        13.02042        -5.32729
   H       -1.71522        15.74077        -2.28053
   H        0.43654        17.84006        -6.40327
   H       -2.75042        21.57380        -2.59530
   H       -1.72973        22.86689        -4.58429
   H       -2.79672        17.28190        -1.15508
   H       -3.51446        20.25881        -1.25561
   H       -4.25671        17.97827         0.67667
   H       -7.58190        20.38982         4.25541
   H       -8.45291        22.70409         4.51057
   H       -7.79509        24.46291         2.93732
   H       -6.24557        23.96270         1.05917
*
