# ORCA input file
# SCF done       -165.511585393701          0.005638478192
! CAM-B3LYP def2-SVP def2/J RIJCOSX Grid4 TightSCF
%maxcore 5000
%tddft
    Mode sTDDFT
    Ethresh 5.0
    maxcore 5000
end

%pal
  nprocs 6
  end
* xyz 0 1
   C       -3.61714        10.87191        -7.87237
   C       -3.07319         9.71328        -8.33912
   C       -2.65411         8.88362        -7.28159
   C       -2.90086         9.45145        -6.02736
   S       -3.63643        10.98832        -6.14685
   C       -2.44933         8.54991        -5.02185
   C       -1.92401         7.40934        -5.64985
   C       -2.02527         7.58686        -7.09253
   C       -1.59168         6.72751        -8.05886
   C       -0.97380         5.49691        -7.74848
   N       -0.47337         4.49671        -7.49608
   C       -1.72908         7.01466        -9.43356
   N       -1.83917         7.25251       -10.54955
   C       -1.45592         6.45606        -4.74394
   C       -1.62090         6.87543        -3.43978
   S       -2.35984         8.46192        -3.32403
   C       -1.25189         6.23241        -2.21423
   C       -0.76065         4.97056        -2.09239
   C       -0.41673         4.45406        -0.80356
   C        0.03723         3.16097        -0.62768
   C        0.35534         2.65260         0.64190
   N        0.60019         2.23365         1.68166
   C        0.18622         2.27765        -1.71021
   N        0.30095         1.56444        -2.60214
   C       -0.57349         5.36199         0.29856
   C       -1.06585         6.60476         0.08879
   O       -1.43798         7.04241        -1.13955
   C       -1.25628         7.63475         1.10898
   C       -0.60962         7.67319         2.29757
   C       -0.81120         8.79081         3.17586
   C       -0.14599         8.90752         4.38673
   C       -0.30577        10.04137         5.20054
   N       -0.43363        10.98412         5.84689
   C        0.73969         7.92215         4.84841
   N        1.46234         7.11194         5.22246
   C       -1.71750         9.78622         2.72120
   C       -2.35398         9.67187         1.51282
   O       -2.11751         8.59568         0.70310
   C       -3.31019        10.55767         0.95567
   C       -3.71686        11.78100         1.42158
   C       -4.73597        12.57679         0.82729
   C       -4.96424        13.76318         1.45205
   C       -4.12667        13.98956         2.56753
   S       -3.05626        12.62194         2.80555
   C       -4.05821        15.08582         3.39995
   C       -4.86166        16.25274         3.39656
   C       -4.51514        17.15670         4.34844
   C       -3.40724        16.77058         5.15548
   S       -2.85201        15.18143         4.66078
   C       -2.84627        17.53693         6.13817
   C       -1.70934        17.24554         6.92733
   C       -0.90681        16.13076         6.97163
   C        0.17995        16.25676         7.86450
   C        1.20675        15.35994         8.15911
   C        2.17041        15.77217         9.06765
   C        2.05468        17.06297         9.64960
   N        1.09038        17.92019         9.39319
   C        0.18729        17.52205         8.52250
   S       -1.14492        18.50636         8.03027
   S        3.35085        17.41253        10.75865
   C        4.04356        15.83975        10.43463
   C        3.33551        15.09960         9.54977
   F        3.67676        13.86990         9.14794
   F        5.16874        15.48725        11.04597
   H       -4.01501        11.68598        -8.44221
   H       -2.97863         9.47597        -9.38117
   H       -1.01507         5.51495        -5.01562
   H       -0.63572         4.34834        -2.96240
   H       -0.30758         5.03410         1.28935
   H        0.07963         6.89552         2.58031
   H       -1.90960        10.62924         3.36054
   H       -3.76700        10.20666         0.04011
   H       -5.26893        12.23596        -0.04244
   H       -5.69815        14.48286         1.13652
   H       -5.66700        16.38391         2.69720
   H       -5.00741        18.10080         4.50046
   H       -3.30518        18.50021         6.31850
   H       -1.07277        15.23987         6.39607
   H        1.25369        14.38615         7.69677
*
