# ORCA input file
# SCF done       -187.791892362291          0.000757986937
! CAM-B3LYP def2-SVP def2/J RIJCOSX Grid4 TightSCF
%maxcore 5000
%tddft
    Mode sTDDFT
    Ethresh 5.0
    maxcore 5000
end

%pal
  nprocs 6
  end
* xyz 0 1
   C        4.34479         0.61528        -5.30604
   C        4.90927         0.47410        -4.07449
   C        4.39885         1.42069        -3.16672
   C        3.45145         2.26702        -3.75548
   S        3.18564         1.89698        -5.39784
   C        3.00118         3.19544        -2.77562
   C        3.66086         2.92448        -1.56656
   C        4.56257         1.79761        -1.77478
   C        5.38503         1.22147        -0.85116
   C        5.45911         1.67931         0.48092
   N        5.52570         2.04448         1.56600
   C        6.21649         0.12511        -1.16116
   N        6.89272        -0.76987        -1.39967
   C        3.29719         3.79672        -0.54004
   C        2.37555         4.73715        -0.96805
   S        1.93831         4.51767        -2.65446
   C        1.82371         5.82267        -0.23819
   C        1.86483         6.06252         1.12477
   C        1.24687         7.26899         1.46234
   C        0.74498         7.95571         0.33741
   S        1.00603         7.10714        -1.11990
   C        0.18697         9.17510         0.75471
   C        0.30973         9.27457         2.16180
   C        0.97181         8.06560         2.64493
   C        1.26454         7.75542         3.94172
   C        0.93859         8.61889         5.00738
   N        0.67363         9.32229         5.87389
   C        1.90246         6.55063         4.30331
   N        2.41581         5.57096         4.60587
   C       -0.18620        10.46674         2.65732
   C       -0.66551        11.30976         1.64196
   S       -0.51751        10.55321         0.05389
   C       -1.15101        12.61185         1.79856
   C       -1.43555        13.49361         0.77347
   C       -1.84590        14.84365         0.86044
   C       -1.92466        15.49399        -0.34401
   C       -1.57707        14.68654        -1.43972
   S       -1.21062        13.06594        -0.90437
   C       -1.39940        14.93791        -2.79775
   C       -1.60030        16.06020        -3.61491
   C       -1.21075        15.86923        -4.91715
   C       -0.66574        14.59466        -5.18987
   S       -0.71988        13.63101        -3.73491
   C       -0.12619        14.14748        -6.38408
   C        0.51843        12.92604        -6.59763
   C        0.78704        11.88938        -5.69444
   C        1.50912        10.86161        -6.25979
   C        1.81581        11.05974        -7.62619
   S        1.18778        12.55376        -8.19571
   C        2.56820         9.95745        -8.06882
   C        2.74631         9.06242        -6.98536
   C        2.09528         9.60223        -5.81904
   C        2.05885         9.07234        -4.55750
   C        2.71546         7.87014        -4.23080
   N        3.25863         6.89971        -3.94712
   C        1.38700         9.68960        -3.48565
   N        0.84660        10.17014        -2.59407
   C        3.48921         7.93326        -7.32176
   C        3.88862         7.94512        -8.64498
   S        3.32941         9.38748        -9.49366
   C        4.65863         6.95405        -9.30216
   C        5.13245         5.77460        -8.74815
   C        5.86201         5.02474        -9.66720
   C        5.94748         5.62932       -10.92915
   S        5.12649         7.12833       -10.98519
   C        6.70382         4.78079       -11.78234
   C        7.08744         3.64274       -11.05835
   C        6.57726         3.75305        -9.70930
   C        6.72523         2.86226        -8.68379
   C        7.40901         1.63925        -8.84052
   N        7.94860         0.63386        -8.95911
   C        6.20074         3.09092        -7.39712
   N        5.78426         3.25850        -6.34098
   C        7.85123         2.74636       -11.83236
   C        8.02836         3.20987       -13.09884
   S        7.27484         4.74609       -13.39080
   H        4.54386         0.03851        -6.18725
   H        5.65063        -0.26770        -3.84009
   H        3.69167         3.77337         0.45910
   H        2.31872         5.38576         1.82516
   H       -0.19165        10.75486         3.69328
   H       -1.26358        12.97127         2.81295
   H       -2.05139        15.30763         1.80926
   H       -2.19414        16.52928        -0.45596
   H       -2.01854        16.97677        -3.23822
   H       -1.28370        16.62266        -5.68188
   H       -0.18046        14.82566        -7.22547
   H        0.47928        11.89205        -4.66818
   H        3.73344         7.14039        -6.63973
   H        4.94976         5.48775        -7.72945
   H        8.24851         1.81323       -11.47689
   H        8.56348         2.74417       -13.90182
*
