# ORCA input file
# SCF done       -152.585365996548          0.000779795529
! CAM-B3LYP def2-SVP def2/J RIJCOSX Grid4 TightSCF
%maxcore 5000
%tddft
    Mode sTDDFT
    Ethresh 5.0
    maxcore 5000
end

%pal
  nprocs 6
  end
* xyz 0 1
   C       -0.09817        -2.89801        -1.09713
   C       -0.53831        -2.61501         0.16026
   C       -0.71341        -1.22970         0.34106
   C       -0.39339        -0.49682        -0.80799
   S        0.11557        -1.49692        -2.09336
   C       -0.59888         0.88656        -0.53681
   C       -1.04752         1.01809         0.78421
   C       -1.13521        -0.30967         1.38100
   C       -1.53226        -0.61284         2.65027
   C       -1.92028         0.38294         3.57113
   N       -2.23580         1.19222         4.31993
   C       -1.58138        -1.93973         3.12708
   N       -1.62459        -3.01594         3.52001
   C       -1.28130         2.34463         1.14980
   C       -1.01350         3.21922         0.11373
   S       -0.46297         2.38860        -1.33443
   C       -1.14082         4.63223         0.11535
   C       -0.88566         5.50091        -0.92985
   C       -1.12848         6.82779        -0.57588
   C       -1.56904         6.96826         0.74986
   S       -1.68541         5.46804         1.56113
   C       -1.79415         8.34394         1.00695
   C       -1.49890         9.07506        -0.15859
   C       -1.06227         8.14723        -1.18915
   C       -0.66081         8.44064        -2.45812
   C       -0.61104         9.76016        -2.95824
   N       -0.55337        10.82431        -3.37989
   C       -0.25247         7.43553        -3.36093
   N        0.07915         6.61864        -4.09408
   C       -1.70667        10.44549        -0.00732
   C       -2.14932        10.76508         1.26299
   S       -2.31260         9.34175         2.28639
   C       -2.46927        12.06067         1.76946
   C       -2.83673        12.30097         3.08317
   C       -3.17026        13.56951         3.57051
   C       -3.19558        14.69797         2.77506
   C       -2.79268        14.50916         1.42815
   C       -2.42404        13.20966         0.92951
   N       -2.06151        13.36975        -0.32805
   O       -2.18419        14.66382        -0.59192
   N       -2.61730        15.36850         0.44314
   C       -3.56298        15.99805         3.27126
   C       -4.22694        17.01743         2.60271
   N       -4.86080        16.79654         1.34034
   O       -5.29980        15.68191         1.13615
   O       -4.95932        17.72768         0.57503
   C       -4.35180        18.21495         3.34887
   C       -5.02930        19.45361         2.89775
   C       -3.78016        18.07606         4.60256
   S       -3.08885        16.50021         4.84925
   C       -3.70662        19.04800         5.65205
   N       -4.20647        20.25684         5.46707
   N       -4.16978        21.18727         6.38839
   C       -3.62932        21.00504         7.56047
   C       -3.05124        19.76159         7.89590
   C       -3.09444        18.73505         6.90025
   N       -2.53116        17.60410         7.31191
   S       -1.99650        17.82171         8.81629
   N       -2.45215        19.34647         9.01218
   H        0.11974        -3.86039        -1.51502
   H       -0.72540        -3.36188         0.90988
   H       -1.62901         2.67165         2.11333
   H       -0.54433         5.16757        -1.89337
   H       -1.55443        11.19385        -0.76377
   H       -2.87576        11.46720         3.76923
   H       -3.45021        13.66478         4.60919
   H       -5.49140        19.31906         1.92437
   H       -4.30128        20.26065         2.83244
   H       -5.76674        19.76538         3.63460
   H       -3.64708        21.83615         8.24774
*
