# ORCA input file
# SCF done       -174.957291030119          0.000700529656
! CAM-B3LYP def2-SVP def2/J RIJCOSX Grid4 TightSCF
%maxcore 5000
%tddft
    Mode sTDDFT
    Ethresh 5.0
    maxcore 5000
end

%pal
  nprocs 6
  end
* xyz 0 1
   C       -3.34433        -1.85699        -5.16377
   C       -2.07825        -1.86393        -4.67380
   C       -1.60435        -0.55647        -4.43433
   C       -2.56184         0.42674        -4.76571
   S       -4.01062        -0.26030        -5.36473
   C       -2.01611         1.69838        -4.51181
   C       -0.70091         1.52827        -4.02636
   C       -0.41370         0.09369        -3.96866
   C        0.75499        -0.49083        -3.54480
   C        1.87907         0.26573        -3.17237
   N        2.81268         0.87420        -2.89404
   C        0.90072        -1.88820        -3.46891
   N        1.00847        -3.02922        -3.38887
   C       -0.06559         2.71571        -3.72383
   C       -0.87150         3.83420        -3.97786
   S       -2.45593         3.35185        -4.59758
   C       -0.61003         5.19715        -3.83113
   C        0.54410         5.80549        -3.37273
   C        0.75246         7.19676        -3.25902
   C        1.98473         7.55013        -2.77383
   C        2.80643         6.45295        -2.47911
   S        1.97669         4.95757        -2.83871
   C        4.09946         6.39764        -1.96142
   C        4.99217         7.40540        -1.57209
   C        6.18330         6.92541        -1.08316
   C        6.28613         5.52126        -1.06154
   S        4.81436         4.83034        -1.70444
   C        7.33071         4.76606        -0.54044
   C        7.37647         3.37799        -0.49006
   C        6.50539         2.45294        -1.08881
   C        6.73531         1.16701        -0.69301
   C        7.81766         1.02259         0.20644
   S        8.56760         2.54346         0.52706
   C        7.89932        -0.31741         0.59335
   C        6.86259        -1.03533        -0.04792
   C        6.02132        -0.13600        -0.90580
   C        4.60168        -0.04405        -0.33510
   C        5.98105        -0.56875        -2.37034
   C        6.79599        -2.35235         0.30472
   C        7.77092        -2.72246         1.24537
   S        8.82229        -1.34582         1.62714
   C        7.93963        -3.95237         1.87002
   C        7.03267        -5.00594         1.83372
   C        7.20573        -6.29390         2.37422
   C        6.12734        -7.13046         2.21531
   C        5.04322        -6.53008         1.56096
   S        5.43036        -4.88427         1.14206
   C        3.78995        -7.02913         1.20792
   C        3.27097        -8.32857         1.29657
   C        1.99591        -8.44377         0.80701
   C        1.44019        -7.23716         0.33100
   S        2.60921        -5.94841         0.50752
   C        0.16601        -7.08667        -0.18606
   C       -0.47570        -5.91080        -0.57696
   C       -0.04712        -4.57757        -0.51964
   C       -1.02712        -3.69086        -0.91746
   C       -2.22950        -4.31684        -1.31371
   S       -2.13375        -6.02268        -1.18290
   C       -3.15638        -3.31539        -1.65751
   C       -2.55389        -2.05193        -1.47460
   C       -1.20835        -2.24144        -1.01631
   C       -0.27273        -1.28168        -0.71823
   C       -0.54539         0.09210        -0.84224
   N       -0.76436         1.21425        -0.95694
   C        1.01585        -1.62318        -0.27157
   N        2.06674        -1.91010         0.09087
   C       -3.43639        -0.99205        -1.77102
   C       -4.65151        -1.44789        -2.16999
   S       -4.77708        -3.18434        -2.19272
   H       -3.95236        -2.69763        -5.43245
   H       -1.51441        -2.76102        -4.49041
   H        0.93147         2.78705        -3.33285
   H       -1.41259         5.86737        -4.11362
   H       -0.01076         7.90215        -3.53753
   H        2.30839         8.56462        -2.62330
   H        4.74868         8.45031        -1.64693
   H        6.98341         7.55292        -0.73103
   H        8.14054         5.31423        -0.07766
   H        5.74685         2.71547        -1.79860
   H        4.62670         0.30671         0.69420
   H        4.12354        -1.01870        -0.35672
   H        4.01024         0.64701        -0.92948
   H        6.98376        -0.59784        -2.79145
   H        5.37358         0.12972        -2.93928
   H        5.53597        -1.55712        -2.44856
   H        6.08967        -3.03738        -0.11982
   H        8.83324        -4.10089         2.46155
   H        8.12213        -6.58167         2.85931
   H        6.09580        -8.14652         2.56646
   H        3.84100        -9.14643         1.69992
   H        1.43967        -9.36445         0.78405
   H       -0.41485        -7.99661        -0.27326
   H        0.93223        -4.28999        -0.18827
   H       -3.18617         0.05079        -1.69313
   H       -5.50916        -0.87374        -2.45881
*
