# ORCA input file
# SCF done       -205.802167594509          0.000279824699
! CAM-B3LYP def2-SVP def2/J RIJCOSX Grid4 TightSCF
%maxcore 5000
%tddft
    Mode sTDDFT
    Ethresh 5.0
    maxcore 5000
end

%pal
  nprocs 6
  end
* xyz 0 1
   C        1.10084         2.89015        -2.89863
   C        2.22244         3.35844        -2.26071
   C        3.28139         2.53762        -1.82885
   N        4.16133         1.91482        -1.43230
   C        2.48021         4.72501        -2.03396
   N        2.75173         5.82808        -1.86387
   C        0.93538         1.53187        -3.40724
   C       -0.06356         1.54894        -4.42410
   C       -0.39958         0.42279        -5.11728
   C        0.25104        -0.79471        -4.81237
   C        1.23680        -0.82171        -3.78440
   C        1.56992         0.36278        -3.08724
   C        1.87363        -2.04328        -3.48635
   C        1.55735        -3.18402        -4.17257
   C        0.58802        -3.15624        -5.18599
   C       -0.05105        -1.98715        -5.49873
   C       -0.61071         2.91390        -4.54250
   O       -1.43383         3.32230        -5.33216
   C        0.02480         3.68680        -3.44337
   C       -0.49242         4.90232        -3.10208
   C       -0.33634         5.61556        -1.89580
   S       -0.03844         4.72685        -0.42590
   C        0.05782         6.14595         0.51866
   C       -0.08061         7.28316        -0.26603
   C       -0.38996         6.99617        -1.63810
   C       -0.58680         8.08914        -2.52225
   C       -1.05806         8.03052        -3.92583
   O       -0.66622         8.76201        -4.79906
   O       -2.05136         7.15194        -4.13211
   C       -0.37695         9.36831        -2.04852
   C       -0.01122         9.63813        -0.72950
   C        0.13506         8.61739         0.17745
   O        0.53502         8.81993         1.44634
   C        0.24770         6.06281         1.94668
   C        1.25606         5.42359         2.61157
   O        1.11721         5.56521         3.93757
   C        0.00397         6.26544         4.15455
   C       -0.60293         6.60616         2.97227
   C       -1.84852         7.35694         2.76851
   O       -2.12498         7.92650         1.72887
   C       -2.77344         7.38887         3.90215
   C       -3.01217         6.47376         4.90272
   C       -4.06759         6.84194         5.73543
   C       -4.66425         8.03431         5.36907
   S       -3.88814         8.71211         3.97272
   C       -5.68348         8.71880         6.09192
   S       -5.77111         8.45081         7.79497
   C       -6.97931         9.67059         8.02567
   C       -7.23513        10.32830         6.81275
   C       -6.58205         9.72215         5.69448
   C       -6.90613        10.16947         4.38544
   C       -6.64661         9.42215         3.13534
   O       -6.51821         9.93185         2.05269
   O       -6.68001         8.08890         3.30140
   C       -7.66455        11.31110         4.25115
   C       -8.13164        12.02152         5.35799
   C       -7.94551        11.54613         6.63611
   O       -8.35569        12.23640         7.72066
   C       -7.53805         9.82799         9.31013
   C       -8.80855        10.25465         9.58379
   C       -9.33224        10.60674        10.88600
   C       -8.61413        10.74208        12.04756
   C       -9.17575        11.12174        13.28381
   N       -9.57046        11.42089        14.31994
   C       -7.22484        10.53957        12.17518
   N       -6.09882        10.40569        12.35917
   C      -10.75786        10.87956        10.73612
   C      -11.11240        10.69535         9.36978
   C       -9.92463        10.27724         8.60415
   O       -9.90761         9.92680         7.44112
   C      -12.38679        10.88769         8.92167
   C      -13.38499        11.29424         9.83566
   C      -13.03986        11.47824        11.20533
   C      -11.71212        11.26061        11.64154
   C      -14.04347        11.88100        12.10946
   C      -15.32600        12.09479        11.68264
   C      -15.66433        11.91398        10.33345
   C      -14.71420        11.52235         9.42953
   H       -1.15170         0.45824        -5.89141
   H        2.31498         0.31404        -2.30840
   H        2.62217        -2.05843        -2.70767
   H        2.05345        -4.11422        -3.93885
   H        0.35033        -4.06550        -5.71779
   H       -0.79828        -1.95987        -6.27845
   H       -1.17473         5.32125        -3.83131
   H       -2.35010         7.19664        -5.05543
   H       -0.50505        10.19047        -2.73642
   H        0.15595        10.66085        -0.42260
   H        0.62741         9.76804         1.60912
   H        2.10924         4.88643         2.24759
   H       -0.24093         6.49954         5.17186
   H       -2.46655         5.55352         5.00389
   H       -4.40943         6.25605         6.57008
   H       -6.56599         7.65388         2.44124
   H       -7.90104        11.65442         3.25577
   H       -8.67553        12.94354         5.20600
   H       -8.81810        13.03757         7.44000
   H       -6.90508         9.51836        10.13249
   H      -12.63029        10.73590         7.88032
   H      -11.48612        11.40005        12.68667
   H      -13.77807        12.01945        13.14729
   H      -16.08723        12.40454        12.38286
   H      -16.68127        12.08593        10.01376
   H      -14.96893        11.38037         8.38929
*
