# ORCA input file
# SCF done       -141.555238485873          0.000570031662
! CAM-B3LYP def2-SVP def2/J RIJCOSX Grid4 TightSCF
%maxcore 5000
%tddft
    Mode sTDDFT
    Ethresh 5.0
    maxcore 5000
end

%pal
  nprocs 6
  end
* xyz 0 1
   C        1.60899         1.02119        -1.62069
   N        0.97137        -0.10564        -1.53039
   C        1.54657        -0.76679        -0.48346
   C        2.63148         0.03698         0.10832
   C        3.24398        -0.68829         1.23543
   O        4.15693        -0.34568         1.95289
   C        2.46714        -1.94413         1.27379
   C        1.44068        -1.94266         0.20179
   N        0.72364        -3.09730         0.22983
   C        1.22548        -3.78875         1.21642
   C        2.32062        -3.12740         1.91380
   C        2.67590         1.19756        -0.62389
   C        3.52753         2.34645        -0.50387
   C        3.41697         3.47842        -1.33227
   N        4.20283         4.51708        -1.21304
   C        5.14372         4.48965        -0.26526
   N        5.33593         3.46709         0.57523
   C        4.54836         2.42371         0.46228
   C        5.97347         5.66393        -0.18164
   N        6.99057         5.86868         0.71203
   C        7.49837         4.94949         1.70407
   C        8.41872         3.90435         1.08243
   C        7.58628         7.12838         0.53463
   O        8.51238         7.53862         1.20869
   C        6.84964         7.72744        -0.55532
   C        5.86405         6.79983        -0.97659
   C        5.11054         7.40718        -2.06090
   O        4.18758         7.03826        -2.74310
   N        5.70603         8.68774        -2.20759
   C        5.26638         9.59313        -3.24139
   C        6.20741         9.58235        -4.44368
   C        6.73517         8.88445        -1.32651
   C        7.48866        10.08640        -1.25116
   C        8.52008        10.24477        -0.38574
   C        9.28944        11.43755        -0.27152
   S       10.61287        11.50129         0.85104
   C       10.99158        13.13545         0.42621
   C       12.11745        13.70200         1.14109
   O       12.59100        14.80499         1.02764
   C       10.11083        13.61543        -0.55613
   C        9.16436        12.63848        -0.93137
   C       10.04384        14.90621        -1.18636
   N        9.07593        15.11698        -2.07555
   C        9.23439        16.38362        -2.49597
   C       10.39834        17.01798        -1.82306
   C       10.56096        18.41463        -2.28571
   O       11.39447        19.22616        -1.96580
   C        9.44197        18.56379        -3.23896
   C        8.66794        17.30202        -3.33574
   N        7.63657        17.44114        -4.20846
   C        7.71932        18.67325        -4.64034
   C        8.82143        19.43124        -4.07541
   C       10.90201        16.07779        -0.99445
   H        1.33880         1.73143        -2.38220
   H        0.83090        -4.76096         1.45648
   H        2.86080        -3.53122         2.74706
   H        2.67210         3.55034        -2.11309
   H        4.72962         1.61442         1.15829
   H        6.65969         4.46094         2.20091
   H        8.05734         5.55906         2.41945
   H        7.86296         3.27918         0.38904
   H        8.83215         3.27365         1.86369
   H        9.23640         4.38764         0.55285
   H        5.16866        10.60196        -2.83101
   H        4.27756         9.24052        -3.54773
   H        7.21206         9.88714        -4.15868
   H        5.83818        10.26369        -5.20489
   H        6.25629         8.58201        -4.86656
   H        7.21074        10.89353        -1.91244
   H        8.79427         9.42901         0.27102
   H       12.54311        12.97508         1.86038
   H        8.41947        12.85788        -1.67381
   H        7.00663        19.04706        -5.35553
   H        9.05454        20.45287        -4.30090
   H       11.73803        16.12504        -0.32656
*
