# ORCA input file
# SCF done       -180.472664741984          0.000864178890
! CAM-B3LYP def2-SVP def2/J RIJCOSX Grid4 TightSCF
%maxcore 5000
%tddft
    Mode sTDDFT
    Ethresh 5.0
    maxcore 5000
end

%pal
  nprocs 6
  end
* xyz 0 1
   C       -0.26598         0.80657        -2.79888
   C       -1.19285         1.65911        -3.31519
   S       -1.84692         1.04987        -4.79034
   C       -0.85517        -0.38683        -4.71396
  Cl       -0.93114        -1.57760        -5.91559
   C       -0.06965        -0.36513        -3.59925
   C        0.93965        -1.23419        -2.98747
   O        1.33564        -2.30317        -3.38756
   C        1.31663        -0.53348        -1.71364
   C        0.60544         0.74173        -1.64554
   C        0.75448         1.73509        -0.71831
   C        0.00403         2.92870        -0.79633
   N       -0.60184         3.90107        -0.84532
   C        1.65117         1.71320         0.36973
   N        2.36934         1.75962         1.26368
   C        2.03397        -1.08400        -0.70729
   C        2.77753        -2.32407        -0.75804
   C        2.75094        -3.17309         0.34520
   C        3.42107        -4.38584         0.32568
   N        3.34639        -5.18593         1.51981
   O        2.43848        -4.95522         2.28948
   O        4.19239        -6.04056         1.69821
   C        4.17796        -4.78912        -0.79354
   C        4.24367        -3.88933        -1.86667
   C        3.56532        -2.69349        -1.85720
   C        4.81546        -6.08326        -0.86962
   C        5.95804        -6.30722        -1.55138
   C        6.68061        -7.52442        -1.70980
   N        6.54282        -8.72822        -1.06219
   C        5.63866        -9.08803         0.00583
   C        4.30690        -9.60753        -0.53260
   C        7.46553        -9.68169        -1.53828
   O        7.53495       -10.81682        -1.10906
   C        8.22296        -8.98695        -2.55390
   C        7.72365        -7.66458        -2.62023
   C        8.46936        -6.94632        -3.62847
   O        8.39631        -5.80795        -4.04049
   N        9.39160        -7.89761        -4.11040
   C       10.36732        -7.54899        -5.11421
   C       11.74071        -7.27988        -4.50361
   C        9.25578        -9.11404        -3.48127
   C       10.04234       -10.25335        -3.78717
   C        9.85901       -11.44692        -3.16700
   C       10.60876       -12.61993        -3.44929
   S       10.18654       -14.12649        -2.68857
   C       11.46131       -14.99807        -3.48610
   C       12.18144       -14.11423        -4.30520
   C       11.68836       -12.79985        -4.28463
   N       13.32255       -14.38025        -5.11381
   O       14.00342       -15.36091        -4.88582
   O       13.56900       -13.57356        -5.98859
   C       11.46445       -16.39712        -3.23082
   C       12.30920       -17.34226        -3.71071
   C       12.22512       -18.73894        -3.45675
   S       13.49423       -19.71168        -4.15738
   C       12.85094       -21.20326        -3.53489
   C       11.69680       -20.94315        -2.81566
   C       11.34441       -19.56425        -2.76944
   C       10.12885       -19.27167        -2.02479
   O        9.58422       -18.22478        -1.80847
   S        9.46027       -20.82326        -1.40319
   C       10.78043       -21.83025        -2.11125
   O       10.80147       -23.01869        -1.96894
   C       13.58853       -22.39486        -3.85729
   C       13.30353       -23.64254        -3.48672
   H       -1.54054         2.59836        -2.93305
   H        2.03081        -0.59170         0.25802
   H        2.18839        -2.90938         1.22934
   H        4.81542        -4.16450        -2.73871
   H        3.65570        -2.02472        -2.69724
   H        4.33082        -6.88367        -0.33638
   H        6.43773        -5.48383        -2.06636
   H        5.50298        -8.23582         0.67442
   H        6.13107        -9.89218         0.56100
   H        3.83440        -8.88293        -1.19264
   H        3.63617        -9.82074         0.29467
   H        4.47025       -10.52449        -1.09327
   H        9.99513        -6.63860        -5.59246
   H       10.42222        -8.34270        -5.86462
   H       11.67959        -6.44884        -3.80562
   H       12.44793        -7.02406        -5.28745
   H       12.10955        -8.15268        -3.96939
   H       10.79742       -10.15199        -4.55225
   H        9.09016       -11.53904        -2.41089
   H       12.14581       -12.02019        -4.86633
   H       10.66150       -16.71012        -2.57651
   H       13.14467       -17.05787        -4.33458
   H       14.46354       -22.20285        -4.46691
   H       12.44960       -23.88568        -2.88072
   H       13.93810       -24.45734        -3.79011
*
