# ORCA input file
# SCF done       -176.203563080674          0.000804967410
! CAM-B3LYP def2-SVP def2/J RIJCOSX Grid4 TightSCF
%maxcore 5000
%tddft
    Mode sTDDFT
    Ethresh 5.0
    maxcore 5000
end

%pal
  nprocs 6
  end
* xyz 0 1
   C        3.69848         2.62863        -3.81112
   C        3.34131         3.66007        -4.62444
   S        3.76995         3.33861        -6.26363
   C        4.44743         1.78156        -5.85141
  Cl        5.12995         0.77495        -7.02917
   C        4.33338         1.55209        -4.51145
   C        4.69475         0.48209        -3.57812
   O        5.23808        -0.56733        -3.82858
   C        4.17639         0.95300        -2.24838
   C        3.62645         2.29945        -2.40422
   C        3.18080         3.13848        -1.42216
   C        2.69015         4.42742        -1.72652
   N        2.28690         5.47446        -1.96288
   C        3.17975         2.85315        -0.04086
   N        3.16969         2.68126         1.09359
   C        4.05318         0.17906        -1.14741
   C        4.61163        -1.14540        -0.96302
   C        3.83867        -2.12618        -0.34897
   C        4.31963        -3.41731        -0.19435
   N        3.40452        -4.38035         0.36409
   O        2.48056        -3.95114         1.02112
   O        3.59326        -5.55864         0.13836
   C        5.62314        -3.76848        -0.59465
   C        6.40502        -2.74835        -1.15089
   C        5.91683        -1.47704        -1.34661
   C        6.16648        -5.09642        -0.39337
   C        7.08614        -5.66340        -1.18709
   C        7.60515        -7.00553        -1.00399
   C        8.83736        -7.34860        -1.55254
   C        9.36458        -8.62034        -1.38588
   N       10.62633        -8.89744        -2.02286
   O       11.30239        -7.94659        -2.35492
   O       10.93389       -10.05674        -2.20632
   C        8.67406        -9.61375        -0.67284
   C        7.42322        -9.26075        -0.15374
   C        6.89886        -7.99792        -0.31150
   C        9.21368       -10.93945        -0.42481
   C        8.46642       -12.05029        -0.47848
   C        8.93143       -13.39553        -0.20731
   C       10.11152       -13.66322         0.47994
   C       10.51167       -14.96529         0.73845
   N       11.75003       -15.11824         1.45446
   O       12.12883       -14.17686         2.11649
   O       12.34920       -16.17385         1.37006
   C        9.75188       -16.07090         0.31001
   C        8.56467       -15.78314        -0.37368
   C        8.16326       -14.49126        -0.62256
   C       10.13626       -17.43828         0.58600
   C        9.82376       -18.48674        -0.19552
   C       10.20688       -19.83490         0.10414
   C       11.35737       -20.28201         0.65611
   C       11.39525       -21.67349         1.21862
   O       10.56652       -22.53442         1.04802
   C       12.60914       -21.70122         2.03855
   C       13.21863       -22.56685         2.89812
   S       14.68948       -21.86837         3.52996
   C       14.47132       -20.41970         2.61579
   C       13.33172       -20.47252         1.87733
   C       12.63817       -19.63324         0.91655
   C       13.21361       -18.58997         0.25007
   C       14.52398       -18.15994         0.55431
   N       15.59469       -17.82142         0.78481
   C       12.63077       -17.89371        -0.82685
   N       12.21787       -17.32593        -1.73443
  Cl       12.70794       -24.11559         3.35752
   H        2.85287         4.58205        -4.37840
   H        3.44471         0.53751        -0.32557
   H        2.83146        -1.90896        -0.02348
   H        7.42690        -2.96653        -1.41721
   H        6.55748        -0.71992        -1.76809
   H        5.77628        -5.65812         0.44250
   H        7.48165        -5.12226        -2.03620
   H        9.40970        -6.62719        -2.11755
   H        6.87120       -10.00157         0.40404
   H        5.91868        -7.77835         0.08198
   H       10.27085       -11.00427        -0.21291
   H        7.43424       -11.97736        -0.79744
   H       10.74180       -12.86209         0.83400
   H        7.93512       -16.60129        -0.68612
   H        7.23831       -14.31541        -1.15197
   H       10.72410       -17.61868         1.47569
   H        9.21756       -18.35064        -1.08111
   H        9.46265       -20.60127        -0.09483
   H       15.19197       -19.63057         2.69693
*
