# ORCA input file
# SCF done       -156.583447902766          0.000858511063
! CAM-B3LYP def2-SVP def2/J RIJCOSX Grid4 TightSCF
%maxcore 5000
%tddft
    Mode sTDDFT
    Ethresh 5.0
    maxcore 5000
end

%pal
  nprocs 6
  end
* xyz 0 1
   C        1.33541       -10.18257         0.66692
   C        0.82874       -11.39890         0.32469
   S       -0.84256       -11.51638         0.73359
   C       -0.86239        -9.89569         1.38933
  Cl       -2.27394        -9.22374         2.04093
   C        0.36678        -9.31950         1.27451
   C        0.99071        -8.04275         1.63730
   O        0.51456        -7.14738         2.29399
   C        2.39628        -8.15097         1.12598
   C        2.60638        -9.49234         0.59098
   C        3.75432       -10.02591         0.07308
   C        3.78883       -11.34373        -0.43239
   N        3.83409       -12.41225        -0.84676
   C        5.00017        -9.37262        -0.01485
   N        6.04049        -8.89761        -0.11353
   C        3.32242        -7.17039         1.23401
   C        3.03014        -5.80753         1.60551
   C        1.91244        -5.12146         1.06864
   N        1.06121        -5.55425         0.13969
   S       -0.02529        -4.41043        -0.14247
   N        0.53558        -3.29553         0.86809
   C        1.61175        -3.78055         1.48433
   C        2.42632        -3.12252         2.43524
   C        3.54214        -3.80337         2.89625
   C        3.84436        -5.09759         2.47416
   C        2.10603        -1.80683         2.90583
   S        0.76444        -0.86916         2.28400
   C        1.26833         0.35751         3.44206
   N        2.30709        -0.00760         4.13835
   N        2.76838        -1.19005         3.84171
   C        0.61816         1.61319         3.62995
   C       -0.39122         2.06487         2.86630
   C       -1.06964         3.32981         3.04044
   C       -1.85534         3.83499         2.00661
   C       -2.50324         5.05507         2.12337
   N       -3.23271         5.49988         0.96584
   O       -3.61376         4.65167         0.18938
   O       -3.42478         6.69257         0.81907
   C       -2.42249         5.82120         3.30278
   C       -1.65437         5.28187         4.34301
   C       -0.98825         4.08605         4.21819
   C       -3.11335         7.08117         3.45796
   C       -2.73787         8.06352         4.29652
   C       -3.43529         9.31086         4.40298
   C       -3.99903        10.04260         3.41555
   C       -4.97205        11.12517         3.78535
   O       -5.16616        11.55911         4.89477
   C       -5.63528        11.46528         2.52449
   C       -6.66040        12.26628         2.11523
   S       -6.88804        12.13435         0.38851
   C       -5.58904        11.00733         0.23741
   C       -5.02191        10.74698         1.44497
   C       -3.91833         9.95699         1.96084
   C       -2.91221         9.45187         1.18808
   C       -2.94202         9.56313        -0.21980
   N       -2.94389         9.66547        -1.36165
   C       -1.73192         8.84854         1.66345
   N       -0.73125         8.39151         1.99063
  Cl       -7.63491        13.28008         3.05977
   H        1.31673       -12.23445        -0.13666
   H        4.36407        -7.39253         1.03814
   H        4.17944        -3.30573         3.61004
   H        4.71761        -5.58626         2.88040
   H        1.02646         2.19767         4.44159
   H       -0.72692         1.46187         2.03176
   H       -1.95002         3.29202         1.07722
   H       -1.60309         5.81502         5.27891
   H       -0.41306         3.71521         5.05164
   H       -3.98086         7.25066         2.83488
   H       -1.89686         7.93162         4.96369
   H       -3.56305         9.71025         5.40540
   H       -5.34420        10.61032        -0.72751
*
