# ORCA input file
# SCF done       -173.507885099599          0.000547122212
! CAM-B3LYP def2-SVP def2/J RIJCOSX Grid4 TightSCF
%maxcore 5000
%tddft
    Mode sTDDFT
    Ethresh 5.0
    maxcore 5000
end

%pal
  nprocs 6
  end
* xyz 0 1
   C        9.27959         2.00675         0.64451
   C       10.25824         2.94405         0.77240
   S       11.73484         2.40640         0.06029
   C       11.02454         0.88519        -0.42321
  Cl       11.92287        -0.28748        -1.25069
   C        9.71715         0.82869        -0.03884
   C        8.61875        -0.13266        -0.14083
   O        8.66073        -1.22070        -0.67200
   C        7.46405         0.52391         0.54426
   C        7.88504         1.84850         1.00396
   C        7.15197         2.80812         1.64784
   C        7.73438         4.03958         2.02257
   N        8.18583         5.04593         2.33711
   C        5.79098         2.74466         2.01218
   N        4.69115         2.78151         2.33978
   C        6.21139         0.03267         0.76681
   C        5.59873        -1.20260         0.43416
   S        3.94784        -1.42331         0.96327
   C        3.89788        -3.00209         0.29072
   C        2.64826        -3.74004         0.30798
   O        1.64663        -3.36333         0.85994
   C        5.10796        -3.34855        -0.31818
   C        6.05587        -2.32059        -0.23915
   C        5.36009        -4.66449        -0.86020
   N        6.01626        -4.93216        -2.03032
   C        6.51108        -3.98489        -3.00310
   C        8.03228        -3.87014        -2.96158
   C        6.10868        -6.32284        -2.26400
   O        6.60736        -6.79863        -3.26487
   C        5.48439        -6.92389        -1.11010
   C        5.01710        -5.86864        -0.27674
   C        4.44390        -6.45301         0.91644
   O        3.94468        -5.96089         1.90488
   N        4.59205        -7.83916         0.71921
   C        4.07087        -8.78220         1.67833
   C        2.73475        -9.36898         1.22926
   C        5.20562        -8.13228        -0.47931
   C        5.48931        -9.45280        -0.91200
   C        6.06668        -9.71699        -2.11207
   C        6.37514       -11.01829        -2.58829
   S        7.05643       -11.20278        -4.17990
   C        7.12089       -12.92807        -4.01956
   C        6.63718       -13.32968        -2.76337
   C        6.22203       -12.24772        -1.97640
   C        6.55799       -14.70868        -2.29755
   O        6.85949       -15.69851        -2.91693
   C        7.61360       -13.76869        -5.04103
   C        8.04552       -13.32447        -6.25229
   C        8.53774       -14.19782        -7.24480
   C        9.10521       -13.86634        -8.44032
   C        9.20444       -14.90940        -9.50810
   O        9.04656       -16.09806        -9.36809
   C        9.47554       -14.15043       -10.73551
   C        9.60102       -14.40957       -12.06691
   S        9.92366       -12.93527       -12.95020
   C        9.89274       -11.98881       -11.50627
   C        9.64428       -12.76248       -10.41667
   C        9.54170       -12.59258        -8.97735
   C        9.97581       -11.48118        -8.30217
   C       10.39972       -10.32739        -8.99479
   N       10.72978        -9.37489        -9.54273
   C       10.15514       -11.38336        -6.90788
   N       10.37030       -11.25569        -5.78761
  Cl        9.48443       -15.90307       -12.85777
   H       10.22121         3.91090         1.23340
   H        5.53934         0.68907         1.30721
   H        2.67795        -4.67839        -0.27449
   H        7.05680        -2.39381        -0.62018
   H        6.03873        -3.01713        -2.82251
   H        6.21168        -4.35290        -3.98987
   H        8.37986        -3.50105        -2.00044
   H        8.36396        -3.18217        -3.73409
   H        8.47749        -4.84392        -3.14810
   H        3.92972        -8.21934         2.60540
   H        4.80677        -9.57177         1.85552
   H        2.00268        -8.57385         1.11223
   H        2.36955       -10.06793         1.97649
   H        2.83479        -9.88972         0.27908
   H        5.22793       -10.26228        -0.24697
   H        6.31614        -8.89424        -2.76940
   H        5.82452       -12.36857        -0.98458
   H        6.17193       -14.78464        -1.26243
   H        7.65492       -14.82417        -4.80388
   H        7.98556       -12.26689        -6.47059
   H        8.39232       -15.26094        -7.08247
   H       10.05208       -10.93069       -11.56861
*
