# ORCA input file
# SCF done       -173.419893569383          0.000440863937
! CAM-B3LYP def2-SVP def2/J RIJCOSX Grid4 TightSCF
%maxcore 5000
%tddft
    Mode sTDDFT
    Ethresh 5.0
    maxcore 5000
end

%pal
  nprocs 6
  end
* xyz 0 1
   C        0.97164         0.81961        -0.48660
   C       -0.21706         1.22146        -1.01502
   S       -0.23880         1.01942        -2.72719
   C        1.39043         0.38657        -2.74007
  Cl        2.14324        -0.08490        -4.18074
   C        1.89349         0.33843        -1.47371
   C        3.15453        -0.04890        -0.83567
   O        4.19895        -0.34939        -1.35875
   C        2.90201         0.13751         0.63590
   C        1.58358         0.73635         0.82273
   C        0.99420         1.12180         1.99408
   C       -0.30734         1.66920         2.01703
   N       -1.36292         2.11598         2.05062
   C        1.57966         1.02965         3.27365
   N        1.99978         0.97449         4.33995
   C        3.81190        -0.16081         1.58503
   C        5.02338        -0.90261         1.31129
   N        4.95227        -2.06463         0.69642
   N        5.99153        -2.79826         0.42492
   C        7.22545        -2.48296         0.76977
   C        7.44670        -1.24956         1.45177
   C        6.29859        -0.43155         1.73395
   N        6.73612         0.68322         2.28670
   O        8.05828         0.56584         2.33253
   N        8.51040        -0.57254         1.83312
   C        8.31768        -3.37000         0.49293
   N        8.41012        -4.20669        -0.58407
   C        7.43391        -4.38106        -1.63384
   C        6.40054        -5.43939        -1.26252
   C        9.61611        -4.93049        -0.56985
   O        9.94207        -5.71808        -1.43636
   C       10.27977        -4.50035         0.64206
   C        9.45700        -3.53184         1.26903
   C       10.06024        -3.18417         2.54356
   O        9.69604        -2.48586         3.45966
   N       11.25478        -3.93809         2.56812
   C       12.19548        -3.80338         3.65405
   C       13.37089        -2.90660         3.27428
   C       11.39512        -4.72084         1.45131
   C       12.49156        -5.59275         1.23288
   C       12.62521        -6.33683         0.10714
   C       13.71329        -7.21582        -0.13083
   S       14.96621        -7.50268         1.03603
   C       15.79988        -8.57289        -0.03888
   C       16.97650        -9.24072         0.45475
   O       17.69884        -9.98450        -0.17263
   C       15.11982        -8.70310        -1.25448
   C       13.93259        -7.95636        -1.27531
   C       15.51307        -9.54747        -2.35876
   C       16.73585        -9.74249        -2.88413
   C       16.96323       -10.92358        -3.78717
   O       16.11163       -11.57439        -4.33832
   C       18.41670       -11.10506        -3.77336
   C       19.31580       -12.01781        -4.24069
   S       20.94067       -11.56155        -3.78841
   C       20.39022       -10.13967        -2.98311
   C       19.03673       -10.02999        -3.05271
   C       18.01803        -9.10152        -2.61252
   C       18.24572        -7.81677        -2.20913
   C       19.55646        -7.32194        -2.03681
   N       20.61383        -6.90560        -1.88347
   C       17.24356        -6.85856        -1.96423
   N       16.47168        -6.02830        -1.78263
  Cl       19.01022       -13.42185        -5.13587
   H       -1.07983         1.62249        -0.52105
   H        3.67578         0.14646         2.61368
   H        7.98817        -4.69423        -2.52295
   H        6.93907        -3.42662        -1.82218
   H        6.89250        -6.38528        -1.04890
   H        5.71362        -5.58142        -2.09138
   H        5.83707        -5.11606        -0.39182
   H       12.54223        -4.79279         3.96503
   H       11.63853        -3.35003         4.47880
   H       13.91890        -3.31568         2.42838
   H       14.04851        -2.81264         4.11809
   H       13.00969        -1.91676         3.00689
   H       13.24939        -5.65895         2.00191
   H       11.88037        -6.27345        -0.67660
   H       17.18591        -9.00805         1.51615
   H       13.26689        -7.92416        -2.11930
   H       14.71074       -10.12800        -2.80493
   H       21.09957        -9.49584        -2.50219
*
