# ORCA input file
# SCF done       -190.288277609106          0.000753130194
! CAM-B3LYP def2-SVP def2/J RIJCOSX Grid4 TightSCF
%maxcore 5000
%tddft
    Mode sTDDFT
    Ethresh 5.0
    maxcore 5000
end

%pal
  nprocs 6
  end
* xyz 0 1
   C        4.12274         4.04396         0.20624
   C        3.91020         3.77805         1.52964
   C        4.92320         3.82923         2.50893
   N        5.71536         3.86261         3.33884
   C        2.68303         3.30504         2.04187
   N        1.73790         2.82812         2.48492
   C        5.42118         4.24131        -0.42807
   C        5.28784         3.99094        -1.82624
   C        6.35715         4.06096        -2.67279
   C        7.62598         4.40183        -2.15363
   C        7.76208         4.67121        -0.76067
   C        6.63949         4.58319         0.09429
   C        9.03237         5.02025        -0.25848
   C       10.11700         5.09706        -1.08894
   C        9.98238         4.82950        -2.45968
   C        8.76376         4.48892        -2.98036
   C        3.87986         3.69352        -2.13930
   O        3.39542         3.38462        -3.20303
   C        3.14472         3.92651        -0.85993
   C        1.80810         4.14309        -0.88899
   C        1.01566         4.74914         0.11973
   S       -0.74845         4.72092         0.05507
   C       -0.68472         5.70155         1.51379
   N        0.54091         5.96469         1.88353
   N        1.45928         5.44038         1.12856
   C       -1.82170         6.16690         2.21825
   C       -3.08665         5.93611         1.80328
   N       -4.21558         6.37881         2.39375
   C       -4.28838         7.23002         3.56580
   C       -4.19558         6.40938         4.85016
   C       -4.45509         7.26658         6.08924
   N       -4.49608         6.38538         7.24127
   S       -6.15027         5.99856         7.49632
   N       -6.69365         7.57356         7.06846
   C       -5.83752         8.02150         5.98512
   C       -6.54128         7.70813         4.66468
   C       -5.63997         7.99739         3.46662
   N       -6.25225         7.57529         2.22365
   S       -5.79076         5.97469         1.89433
   C       -7.10276         8.30038         1.45514
   C       -7.60799         9.51197         1.75800
   C       -8.46140        10.29393         0.90323
   C       -8.88591        11.54992         1.34421
   C       -9.69388        12.35916         0.56640
   N      -10.00347        13.65850         1.10359
   O       -9.96484        13.78290         2.31072
   O      -10.26521        14.55625         0.33046
   C      -10.14279        11.95284        -0.70671
   C       -9.71196        10.68569        -1.13424
   C       -8.89997         9.88725        -0.36770
   C      -11.04429        12.73273        -1.51336
   C      -11.14693        12.62114        -2.85939
   C      -12.08090        13.38483        -3.60320
   C      -12.23099        13.31289        -4.95755
   C      -13.16669        14.07024        -5.77157
   C      -14.17949        14.87783        -5.32456
   C      -15.06008        15.58307        -6.17194
   N      -15.80711        16.18449        -6.80321
   C      -14.51960        15.10071        -3.97344
   N      -14.88066        15.31476        -2.90455
   C      -12.87348        13.78148        -7.17126
   C      -11.82747        12.81704        -7.22807
   C      -11.40702        12.46657        -5.86141
   O      -10.56214        11.65002        -5.55436
   C      -11.34696        12.34060        -8.41370
   C      -11.90040        12.81673        -9.62287
   C      -12.94468        13.78474        -9.57583
   C      -13.42093        14.26008        -8.33253
   C      -13.49164        14.25216       -10.78830
   C      -13.03150        13.78612       -11.98960
   C      -12.00258        12.83342       -12.03457
   C      -11.44880        12.35942       -10.87645
   H        6.23621         3.86017        -3.72699
   H        6.76651         4.80025         1.14344
   H        9.13186         5.22223         0.79786
   H       11.08587         5.36405        -0.69421
   H       10.84895         4.89509        -3.10048
   H        8.65344         4.28201        -4.03484
   H        1.30226         3.90795        -1.81862
   H       -1.59773         6.73118         3.10909
   H       -3.26539         5.34962         0.91148
   H       -3.45575         7.93946         3.51572
   H       -3.20402         5.96359         4.93180
   H       -4.91851         5.59290         4.82980
   H       -3.64025         7.98724         6.21017
   H       -4.08049         6.79499         8.07163
   H       -6.67782         8.19623         7.86985
   H       -5.68269         9.10209         6.06681
   H       -7.44843         8.30923         4.59700
   H       -6.84488         6.66074         4.66545
   H       -5.44818         9.07332         3.39762
   H       -7.35012         7.80034         0.53030
   H       -7.36288         9.97190         2.70395
   H       -8.57025        11.92305         2.30781
   H      -10.05428        10.32151        -2.08984
   H       -8.60367         8.92612        -0.75640
   H      -11.66755        13.46059        -1.01026
   H      -10.49846        11.95943        -3.41312
   H      -12.70036        14.07069        -3.03950
   H      -10.55357        11.60794        -8.42818
   H      -14.20961        14.99536        -8.33277
   H      -14.28395        14.98522       -10.74862
   H      -13.45810        14.14898       -12.91271
   H      -11.65135        12.47709       -12.99145
   H      -10.65632        11.62581       -10.90449
*
