# ORCA input file
# SCF done       -228.517817267565          0.000504197241
! CAM-B3LYP def2-SVP def2/J RIJCOSX Grid4 TightSCF
%maxcore 5000
%tddft
    Mode sTDDFT
    Ethresh 5.0
    maxcore 5000
end

%pal
  nprocs 6
  end
* xyz 0 1
   C       -0.14134        -0.34507        -5.90786
   C       -0.83387        -1.33568        -6.54687
   F       -2.13315        -1.14944        -6.84308
   C       -0.24213        -2.55313        -6.91013
   C        1.07688        -2.76075        -6.61656
   C        1.83876        -1.77292        -5.95929
   C        1.21865        -0.54060        -5.59891
   C        1.96513         0.46878        -4.94633
   C        3.28377         0.24533        -4.65958
   C        3.89505        -0.99451        -5.00980
   C        3.20156        -1.98072        -5.64954
   C        5.29990        -0.99369        -4.55986
   O        6.13772        -1.85171        -4.71086
   C        5.45149         0.27043        -3.78378
   C        4.29571         1.09665        -4.04186
   C        4.27625         2.46606        -3.99144
   C        5.43353         3.22219        -3.70788
   N        6.38126         3.85123        -3.55365
   C        3.15181         3.24582        -4.32214
   N        2.25131         3.91667        -4.56069
   C        6.49378         0.37203        -2.91637
   C        6.63589         1.15295        -1.74437
   C        7.78256         1.23700        -0.96570
   C        7.60178         1.99786         0.22930
   C        6.28452         2.52953         0.30362
   S        5.29575         2.01792        -1.03341
   C        5.82181         3.34041         1.32209
   C        4.41452         3.85517         1.33500
   C        3.50783         2.94193         2.16228
   C        6.72248         3.60545         2.35752
   C        8.00957         3.01490         2.33223
   C        8.48101         2.21033         1.30835
   C        9.80873         1.53208         1.46707
   C        9.61676         0.08712         1.93294
   S        8.91363         3.43709         3.76816
   C        7.59700         4.39077         4.34924
   C        6.52556         4.39255         3.52982
   C        9.03186         0.65019        -1.44830
   C        9.18250        -0.68728        -1.64914
   C       10.33335        -1.28410        -2.18509
   C       11.52438        -0.48783        -2.48354
   C       11.57766         0.85970        -2.39135
   S       10.24793         1.83282        -1.90872
   C       12.50036        -1.42890        -2.91340
   C       11.95286        -2.71337        -2.93361
   C       12.88670        -3.66704        -3.39696
   C       14.08254        -3.09645        -3.70085
   S       14.13226        -1.38765        -3.44872
   C       10.57790        -2.63145        -2.49090
   C        9.58989        -3.64079        -2.46840
   C        9.77463        -4.96293        -2.72131
   C        8.71279        -5.89799        -2.75940
   C        8.79663        -7.26939        -3.03021
   C        7.50818        -7.92083        -2.99399
   C        6.46468        -6.96613        -2.87882
   S        7.07092        -5.35013        -2.64251
   C        5.11866        -7.26416        -2.92666
   C        4.08473        -6.18049        -2.87912
   C        3.81140        -5.64362        -4.28581
   C        4.79165        -8.61704        -3.05501
   C        5.81892        -9.58830        -3.00639
   C        7.17653        -9.28525        -2.94875
   C        8.17891       -10.37113        -2.65802
   C        8.15415       -11.57372        -3.61052
   S        5.13618       -11.19530        -3.01326
   C        3.53553       -10.55693        -3.12963
   C        3.49691        -9.21021        -3.14118
   C       10.05864        -7.80904        -3.40512
   C       10.38908        -8.73385        -4.35209
   C       11.76563        -9.28594        -4.35501
   O       12.71253        -8.87147        -3.71948
   C       11.71785       -10.45477        -5.25269
   C       12.69342       -11.36921        -5.52376
   C       12.40871       -12.44269        -6.39743
   C       11.11042       -12.54321        -6.97585
   C       10.82926       -13.62014        -7.83876
   C       11.80517       -14.53965        -8.10478
   C       13.08845       -14.45649        -7.54853
   C       13.37763       -13.41846        -6.70684
   F       11.53823       -15.56959        -8.93035
   C       10.12293       -11.57253        -6.68605
   C       10.42110       -10.54185        -5.83653
   C        9.62750        -9.40184        -5.37880
   C        8.46549        -8.96275        -5.96179
   C        7.89509        -7.68990        -5.77093
   N        7.41910        -6.64487        -5.75645
   C        7.74556        -9.69672        -6.92461
   N        7.09333       -10.27307        -7.67435
   H       -0.62916         0.58101        -5.64660
   H       -0.83881        -3.29747        -7.41309
   H        1.55637        -3.68980        -6.88618
   H        1.47349         1.39119        -4.67903
   H        3.68689        -2.90686        -5.91823
   H        7.28060        -0.35377        -3.09416
   H        4.04048         3.90133         0.30950
   H        4.39395         4.86451         1.74840
   H        3.50260         1.93774         1.74455
   H        2.48966         3.32237         2.16120
   H        3.85856         2.88534         3.19040
   H       10.39037         2.07232         2.21681
   H       10.37538         1.54250         0.53936
   H        9.08549         0.06455         2.88167
   H       10.58258        -0.39370         2.06499
   H        9.04460        -0.48063         1.20315
   H        7.70840         4.89683         5.28858
   H        5.62061         4.93193         3.74195
   H        8.36905        -1.33078        -1.33925
   H       12.45832         1.42676        -2.64817
   H       12.71131        -4.72059        -3.51177
   H       14.96413        -3.58409        -4.06847
   H        8.57834        -3.30915        -2.26869
   H       10.76972        -5.33413        -2.90133
   H        4.45096        -5.36424        -2.25143
   H        3.16082        -6.55982        -2.44025
   H        4.72615        -5.24207        -4.71525
   H        3.06262        -4.85498        -4.24552
   H        3.44985        -6.44076        -4.93200
   H        7.96014       -10.73269        -1.64715
   H        9.17763        -9.94182        -2.62627
   H        7.46009       -12.33437        -3.26482
   H        9.14216       -12.02588        -3.66502
   H        7.85244       -11.28404        -4.61301
   H        2.71350       -11.24373        -3.18536
   H        2.58611        -8.64454        -3.21435
   H       10.92133        -7.41470        -2.87498
   H       13.67118       -11.27742        -5.07475
   H        9.85237       -13.71470        -8.28667
   H       13.81819       -15.21122        -7.79541
   H       14.35910       -13.33303        -6.26491
   H        9.14919       -11.67871        -7.13700
*
