# ORCA input file
# SCF done       -186.888574147028          0.000970194551
! CAM-B3LYP def2-SVP def2/J RIJCOSX Grid4 TightSCF
%maxcore 5000
%tddft
    Mode sTDDFT
    Ethresh 5.0
    maxcore 5000
end

%pal
  nprocs 6
  end
* xyz 0 1
   C       -4.79328        -0.13559         7.96032
   C       -5.05427        -0.73857         9.18195
   C       -4.86452        -2.10106         9.36492
   C       -4.39813        -2.90012         8.33196
   C       -4.13342        -2.30840         7.10835
   C       -4.33620        -0.92297         6.91522
   C       -4.00299        -0.58329         5.53700
   C       -3.96295         0.67865         5.00850
   C       -4.23360         1.85267         5.74413
   N       -4.43864         2.84557         6.28162
   C       -3.61274         0.99826         3.67940
   N       -3.34126         1.33144         2.61474
   C       -3.74175        -1.84231         4.84738
   C       -3.60722        -2.86849         5.87451
   C       -2.85422        -4.00874         5.77880
   C       -2.09276        -4.35172         4.64200
   N       -1.43153        -4.64882         3.75177
   C       -2.68207        -4.92837         6.83337
   N       -2.52199        -5.72123         7.64750
   C       -3.73437        -2.00027         3.48861
   C       -3.92357        -3.18346         2.74292
   C       -3.57501        -3.35570         1.40956
   C       -3.91898        -4.61252         0.92966
   C       -4.58685        -5.40188         1.89288
   S       -4.76887        -4.59889         3.38198
   C       -4.88651        -6.65669         1.32645
   C       -4.39993        -6.67860         0.00224
   C       -3.78430        -5.38944        -0.28900
   C       -3.20235        -5.00484        -1.46028
   C       -3.13145        -5.86665        -2.57546
   N       -3.07845        -6.56760        -3.48116
   C       -2.64110        -3.72193        -1.63998
   N       -2.18860        -2.68106        -1.79880
   C       -4.61716        -7.89156        -0.63561
   C       -5.26893        -8.81085         0.18218
   S       -5.61946        -8.13712         1.76784
   C       -5.63945       -10.14682        -0.08334
   C       -5.37130       -10.80645        -1.26600
   C       -5.79510       -12.15760        -1.33415
   C       -6.43061       -12.64983        -0.21220
  Si       -6.53321       -11.30414         1.08275
   C       -6.90474       -13.97372        -0.08383
   C       -6.79029       -15.04650        -0.96242
   C       -7.36947       -16.20394        -0.45969
   C       -7.94595       -16.02523         0.81601
   S       -7.75805       -14.42572         1.38639
   C       -8.50671       -17.25107         1.23622
   C       -8.27456       -18.21599         0.22940
   C       -7.56546       -17.58707        -0.86936
   C       -7.19524       -18.17105        -2.04521
   C       -7.47521       -19.52894        -2.30782
   N       -7.70796       -20.63543        -2.49838
   C       -6.51679       -17.45922        -3.05630
   N       -5.96047       -16.87518        -3.87093
   C       -8.80132       -19.45985         0.53959
   C       -9.45238       -19.46526         1.76746
   S       -9.36201       -17.89192         2.55888
   C      -10.08174       -20.52332         2.45466
   C      -10.51107       -21.72214         1.95511
   C      -10.75242       -22.90343         2.77991
   C      -10.97106       -22.94410         4.13051
   C      -11.04230       -21.82269         4.98415
   N      -11.12209       -20.95626         5.73338
   C      -11.20938       -24.13191         4.85542
   N      -11.40641       -25.05597         5.50664
   C      -10.72762       -24.05150         1.88343
   C      -10.66298       -23.58766         0.55001
   C      -10.59478       -24.47851        -0.50789
   C      -10.59831       -25.83681        -0.22744
   C      -10.67548       -26.29553         1.08015
   C      -10.74022       -25.41206         2.14753
   C      -10.69637       -22.13340         0.56725
   C      -11.10568       -21.34379        -0.47324
   C      -11.40536       -21.83556        -1.76226
   N      -11.67222       -22.17697        -2.82430
   C      -11.37661       -19.96493        -0.36509
   N      -11.63819       -18.84775        -0.32471
   H       -4.95093         0.92313         7.83749
   H       -5.41404        -0.13509        10.00113
   H       -5.08243        -2.54746        10.32298
   H       -4.25967        -3.95879         8.48113
   H       -3.63990        -1.11051         2.87914
   H       -3.06013        -2.59617         0.84903
   H       -4.31996        -8.11541        -1.64329
   H       -4.86391       -10.35124        -2.10210
   H       -5.61675       -12.74094        -2.22387
   H       -5.77712       -11.61235         2.29579
   H       -7.90177       -10.88042         1.37618
   H       -6.29842       -14.97298        -1.91466
   H       -8.68447       -20.33840        -0.06837
   H      -10.16871       -20.37329         3.52264
   H      -10.52232       -24.13193        -1.52599
   H      -10.53710       -26.54488        -1.03947
   H      -10.67888       -27.35716         1.27417
   H      -10.78999       -25.78699         3.15649
*
