# ORCA input file
# SCF done       -184.625819596492          0.000704700291
! CAM-B3LYP def2-SVP def2/J RIJCOSX Grid4 TightSCF
%maxcore 5000
%tddft
    Mode sTDDFT
    Ethresh 5.0
    maxcore 5000
end

%pal
  nprocs 6
  end
* xyz 0 1
   C      -11.01279       -10.48400         4.28348
   C      -10.93162       -11.78569         4.75442
   C      -10.34993       -12.79107         3.99413
   C       -9.83849       -12.52538         2.73390
   C       -9.91594       -11.22888         2.25162
   C      -10.50008       -10.19990         3.02809
   C      -10.44647        -8.95292         2.27882
   C      -11.03436        -7.76927         2.62337
   C      -11.79724        -7.58407         3.79856
   N      -12.41859        -7.36376         4.73695
   C      -10.98962        -6.57465         1.86912
   N      -10.98101        -5.56082         1.33156
   C       -9.66333        -9.22385         1.07307
   C       -9.52917       -10.67195         0.97040
   C       -9.33251       -11.37107        -0.19194
   C       -9.31279       -10.77158        -1.46532
   N       -9.42301       -10.36256        -2.53392
   C       -9.31259       -12.77822        -0.27926
   N       -9.30537       -13.91733        -0.41897
   C       -9.12422        -8.27600         0.25980
   C       -8.13277        -8.44298        -0.74015
   C       -6.98683        -9.36059        -0.77039
   N       -6.20472        -9.18514        -1.79664
   C       -6.76464        -8.18553        -2.53314
   C       -7.95491        -7.68569        -1.88264
   C       -8.53123        -6.60826        -2.65949
   S       -9.99130        -5.92629        -2.04623
   C       -7.72148        -6.45696        -3.77785
   C       -6.59125        -7.43289        -3.68380
   N       -5.74562        -7.29185        -4.70939
   C       -6.22812        -6.31656        -5.45504
   C       -7.46277        -5.74616        -4.98032
   C       -8.18008        -4.75472        -5.66361
   C       -7.65034        -3.84714        -6.70025
   N       -8.49854        -2.95133        -7.09499
   C       -9.65915        -3.20107        -6.40313
   C       -9.48972        -4.32680        -5.52872
   C      -10.71750        -4.58283        -4.74974
   S      -10.33516        -4.14425        -2.91872
   C      -11.62083        -3.55469        -5.29770
   C      -10.95567        -2.71052        -6.23636
   N      -11.80512        -1.70954        -6.65628
   C      -12.91646        -1.88144        -6.00812
   C      -12.90097        -3.04915        -5.11994
   C      -13.86464        -3.71978        -4.35753
   C      -15.18067        -3.41127        -3.88326
   N      -15.77758        -4.41320        -3.24885
   C      -14.92218        -5.44590        -3.25965
   C      -13.66994        -5.05617        -3.93293
   C      -12.85590        -6.16157        -4.11757
   S      -11.31179        -6.30926        -4.84444
   C      -13.57831        -7.27342        -3.55851
   C      -14.82721        -6.81248        -2.98266
   N      -15.49037        -7.85119        -2.41603
   C      -14.73629        -8.90678        -2.58326
   C      -13.50315        -8.63528        -3.31777
   C      -12.52181        -9.52554        -3.82604
   C      -12.11475       -10.71253        -3.30633
   C      -11.34149       -11.72840        -4.01953
   C      -10.52285       -11.51453        -5.09130
   C      -10.22123       -10.23709        -5.61417
   N       -9.92176        -9.22185        -6.05783
   C       -9.80550       -12.53812        -5.74799
   N       -9.22273       -13.33554        -6.33109
   C      -11.53468       -12.97618        -3.29402
   C      -12.20795       -12.69923        -2.07913
   C      -12.49091       -13.71167        -1.17678
   C      -12.09578       -15.00245        -1.49047
   C      -11.42731       -15.27547        -2.67622
   C      -11.13953       -14.27091        -3.58834
   C      -12.42839       -11.26822        -1.99744
   C      -12.59680       -10.52679        -0.85846
   C      -12.76122       -11.08077         0.42551
   N      -12.85751       -11.47464         1.49977
   C      -12.40076        -9.13083        -0.82512
   N      -12.12370        -8.02154        -0.71923
   H      -11.47041        -9.71800         4.88749
   H      -11.33047       -12.01843         5.72974
   H      -10.29718       -13.79501         4.38626
   H       -9.38651       -13.31098         2.14954
   H       -9.44868        -7.25225         0.40001
   H       -6.73969       -10.07706        -0.00705
   H       -5.71765        -6.02995        -6.35734
   H       -6.64732        -3.86104        -7.08543
   H      -13.75662        -1.23055        -6.16809
   H      -15.69130        -2.47149        -3.99709
   H      -15.06675        -9.87236        -2.24409
   H      -12.09513        -9.22291        -4.77448
   H      -13.00951       -13.50555        -0.25344
   H      -12.30623       -15.80345        -0.79940
   H      -11.12059       -16.28690        -2.89271
   H      -10.61812       -14.50062        -4.50325
*
