# ORCA input file
# SCF done       -168.545170629907          0.000207549509
! CAM-B3LYP def2-SVP def2/J RIJCOSX Grid4 TightSCF
%maxcore 5000
%tddft
    Mode sTDDFT
    Ethresh 5.0
    maxcore 5000
end

%pal
  nprocs 6
  end
* xyz 0 1
   C       -3.49832        -1.41088       -10.07751
   C       -2.40077        -1.46885       -10.88979
   F       -2.24196        -0.57157       -11.87301
   C       -1.42513        -2.46834       -10.70629
   F       -0.35819        -2.50166       -11.51807
   C       -1.56048        -3.39715        -9.71272
   C       -2.68064        -3.36449        -8.86009
   C       -3.66763        -2.35387        -9.04407
   C       -4.80151        -2.30151        -8.20058
   C       -4.94474        -3.23252        -7.20640
   C       -3.95590        -4.23990        -7.03253
   C       -2.84969        -4.31436        -7.82762
   C       -4.34828        -5.12164        -5.91306
   O       -3.72127        -6.07551        -5.49812
   C       -5.64504        -4.59871        -5.42915
   C       -5.99097        -3.43020        -6.20374
   C       -7.08955        -2.61984        -6.04325
   C       -8.09535        -2.77748        -5.06868
   N       -8.95308        -2.82813        -4.30567
   C       -7.36033        -1.48906        -6.84024
   N       -7.64184        -0.55832        -7.45144
   C       -6.39656        -5.16989        -4.42659
   C       -6.04145        -6.31140        -3.69871
   C       -6.87221        -6.84049        -2.73868
   C       -6.57688        -7.98508        -1.99507
   C       -7.44408        -8.51490        -1.06411
   C       -7.18879        -9.65807        -0.31562
   C       -8.07545       -10.20128         0.59760
   C       -7.88745       -11.35446         1.38626
   C       -8.94833       -11.65957         2.19342
   C      -10.02444       -10.75998         2.07673
   S       -9.65181        -9.50985         0.91843
   C      -11.24576       -10.79504         2.73991
   C      -11.68995       -11.73566         3.68836
   C      -12.95676       -11.49889         4.14466
   C      -13.57136       -10.36300         3.57848
   S      -12.47791        -9.59561         2.44621
   C      -14.84612        -9.89000         3.83167
   C      -15.39807        -8.76535         3.22677
   C      -16.68083        -8.31859         3.45348
   C      -17.20511        -7.18980         2.81484
   C      -18.49301        -6.71554         2.91880
   C      -19.48012        -7.21378         3.78004
   C      -20.80825        -6.86499         3.80008
   C      -21.61842        -7.11223         5.01612
   O      -21.31120        -7.79622         5.96807
   C      -22.84587        -6.30735         4.83743
   C      -23.87689        -6.10688         5.70821
   C      -24.94495        -5.26320         5.32654
   C      -24.91750        -4.63682         4.04719
   C      -25.98152        -3.79140         3.67509
   C      -27.02616        -3.58121         4.53104
   C      -27.05354        -4.20296         5.79482
   C      -26.03507        -5.02639         6.18595
   F      -28.09067        -3.97906         6.61462
   F      -28.03825        -2.77829         4.17422
   C      -23.83827        -4.86929         3.16295
   C      -22.82106        -5.69880         3.54978
   C      -21.62010        -6.15220         2.84793
   C      -21.43087        -6.09388         1.48820
   C      -20.43390        -6.81545         0.80013
   N      -19.68112        -7.42846         0.18705
   C      -22.28748        -5.40374         0.60799
   N      -22.94061        -4.83784        -0.14824
   H       -4.23615        -0.63895       -10.23129
   H       -0.80476        -4.15638        -9.58548
   H       -5.52946        -1.52457        -8.36796
   H       -2.11436        -5.08930        -7.67274
   H       -7.34794        -4.71670        -4.17892
   H       -5.09488        -6.78702        -3.90939
   H       -7.81932        -6.34866        -2.54879
   H       -5.62905        -8.47751        -2.16917
   H       -8.39319        -8.01644        -0.90531
   H       -6.24404       -10.16888        -0.44875
   H       -6.97879       -11.92786         1.33674
   H       -8.97766       -12.50377         2.85823
   H      -11.07636       -12.55772         4.00965
   H      -13.46473       -12.11086         4.86875
   H      -15.44421       -10.44575         4.54212
   H      -14.77837        -8.22092         2.52413
   H      -17.30393        -8.87661         4.13806
   H      -16.53973        -6.66457         2.14153
   H      -18.75497        -5.86796         2.30026
   H      -19.17813        -7.87078         4.58753
   H      -23.87969        -6.58540         6.67574
   H      -25.97765        -3.31028         2.70950
   H      -26.07092        -5.49470         7.15710
   H      -23.84133        -4.37818         2.20301
*
