# ORCA input file
# SCF done       -168.418148456025          0.000994984440
! CAM-B3LYP def2-SVP def2/J RIJCOSX Grid4 TightSCF
%maxcore 5000
%tddft
    Mode sTDDFT
    Ethresh 5.0
    maxcore 5000
end

%pal
  nprocs 6
  end
* xyz 0 1
   C        6.32791         2.37906         5.43291
   C        5.10832         1.77703         5.50113
   C        4.18611         2.38955         4.63117
   C        4.74977         3.45615         3.91993
   S        6.39116         3.70191         4.31540
   C        3.75225         4.01655         3.07179
   C        2.56326         3.29636         3.25268
   C        2.79553         2.25068         4.24209
   C        1.88649         1.34401         4.70394
   C        0.55217         1.32402         4.24733
   N       -0.53403         1.31004         3.87917
   C        2.21779         0.36980         5.66881
   N        2.48035        -0.42176         6.45578
   C        1.51362         3.76538         2.46392
   C        1.89288         4.84436         1.68399
   S        3.58107         5.27477         1.93346
   C        1.11028         5.59580         0.77234
   S        1.84631         6.87591        -0.14522
   C        0.35781         7.28699        -0.95271
   C       -0.65144         6.46250        -0.51057
   C       -0.24769         5.50345         0.47004
   C       -1.34533         4.72979         0.91742
   C       -2.51466         5.10209         0.32655
   C       -3.85264         4.54352         0.54387
   O       -4.85556         4.95486         0.01530
   O       -3.81999         3.51836         1.40573
   C       -5.06875         2.90079         1.68216
   S       -2.35768         6.41232        -0.81903
   C        0.30495         8.37218        -1.89210
   C        1.01298         9.55516        -1.74469
   C        1.85796         9.90940        -0.69486
   N        2.54603        10.21830         0.17192
   S        0.69721        10.68245        -3.02963
   C       -0.38857         9.56648        -3.80132
   C       -0.47995         8.37654        -3.07891
   C       -1.13176         7.23117        -3.55861
   N       -1.59280         6.26508        -3.97405
   C       -1.05826         9.91253        -4.99617
   S       -2.34598         8.92267        -5.63327
   C       -2.63975         9.99747        -6.97222
   C       -1.75885        11.06316        -6.91618
   C       -0.86686        11.03305        -5.80836
   C        0.00999        12.14382        -5.81336
   C       -0.21524        12.97012        -6.87378
   C        0.52154        14.20061        -7.18121
   O        1.42500        14.63821        -6.51359
   O        0.05806        14.76818        -8.29965
   C        0.69557        15.96885        -8.70762
   S       -1.50588        12.44987        -7.92578
   C       -3.65592         9.73450        -7.92299
   C       -3.98671        10.49771        -9.03035
   C       -5.04996         9.94236        -9.74035
   C       -5.52926         8.75303        -9.17090
   S       -4.67417         8.31237        -7.76302
   C       -6.60931         8.27680        -9.96755
   C       -6.80592         9.16454       -11.03265
   C       -5.83658        10.23976       -10.93154
   C       -5.68569        11.30574       -11.76900
   C       -6.50722        11.49450       -12.90048
   N       -7.17389        11.65516       -13.81958
   C       -4.69622        12.29051       -11.56382
   N       -3.89737        13.09735       -11.40245
   C       -7.86313         8.76817       -11.87352
   C       -8.43493         7.61137       -11.43730
   S       -7.70945         6.97285        -9.99991
   H        7.21531         2.12760         5.97837
   H        4.88925         0.94193         6.14097
   H        0.52847         3.34231         2.45057
   H       -1.30616         3.94049         1.64349
   H       -4.85464         2.08752         2.37043
   H       -5.51568         2.52055         0.76133
   H       -5.75512         3.61923         2.13518
   H        0.77885        12.34364        -5.09023
   H        0.17672        16.29560        -9.60462
   H        1.75082        15.78348        -8.91830
   H        0.62134        16.72268        -7.92127
   H       -3.47446        11.40458        -9.29294
   H       -8.18632         9.30124       -12.74880
   H       -9.25488         7.07917       -11.87638
*
