# ORCA input file
# SCF done       -180.730513082047          0.000340268774
! CAM-B3LYP def2-SVP def2/J RIJCOSX Grid4 TightSCF
%maxcore 5000
%tddft
    Mode sTDDFT
    Ethresh 5.0
    maxcore 5000
end

%pal
  nprocs 6
  end
* xyz 0 1
   C        1.14991        -2.66014         2.98283
   C        0.39687        -2.54777         1.85337
   C        0.12213        -1.19992         1.55393
   C        0.68730        -0.32025         2.48474
   S        1.54535        -1.13950         3.71189
   C        0.36065         1.01439         2.10922
   C       -0.41257         0.96637         0.93864
   C       -0.58699        -0.42670         0.54971
   C       -1.27139        -0.89879        -0.53186
   C       -1.92330        -0.04251        -1.44438
   N       -2.45666         0.64382        -2.19229
   C       -1.37245        -2.27777        -0.81158
   N       -1.45596        -3.39809        -1.04194
   C       -0.78915         2.22873         0.48587
   C       -0.30827         3.23835         1.30168
   S        0.62664         2.60346         2.65088
   C       -0.50820         4.64509         1.13275
   C        0.01883         5.60450         1.98821
   F        0.76458         5.22084         3.04251
   C       -0.17334         6.97983         1.83111
   F        0.40825         7.77345         2.75093
   C       -0.91520         7.54679         0.80188
   C       -1.47548         6.59886        -0.10230
   C       -1.27619         5.18134         0.05902
   N       -1.88972         4.48984        -0.89831
   S       -2.63647         5.49983        -1.89574
   N       -2.22368         6.86901        -1.16902
   C       -1.11083         8.95598         0.65172
   C       -1.84173         9.59269        -0.33819
   C       -1.83279        10.97662        -0.18666
   C       -1.08681        11.39818         0.92891
   S       -0.40129        10.09898         1.78556
   C       -1.14153        12.81236         1.00362
   C       -1.92332        13.28666        -0.06552
   C       -2.38236        12.15019        -0.84981
   C       -3.16336        12.16902        -1.96748
   C       -3.65001        13.36617        -2.53475
   N       -4.05338        14.32924        -3.00819
   C       -3.54232        10.98695        -2.63917
   N       -3.85683        10.03377        -3.19366
   C       -2.04105        14.67554        -0.06955
   C       -1.35675        15.25678         0.98603
   S       -0.55145        14.06596         1.99657
   C       -1.24640        16.63895         1.33853
   C       -1.83926        17.69536         0.65610
   F       -2.57709        17.46833        -0.44204
   C       -1.71938        19.03201         1.05576
   F       -2.35717        19.94274         0.29617
   C       -1.00178        19.45815         2.16808
   C       -0.36596        18.40650         2.88775
   C       -0.49197        17.03602         2.47576
   N        0.17236        16.21237         3.28103
   S        0.88754        17.06639         4.44136
   N        0.38821        18.51769         3.97875
   C       -0.90415        20.82432         2.58071
   C       -0.21019        21.30246         3.67924
   C       -0.32914        22.68304         3.81240
   C       -1.11917        23.26306         2.80717
   S       -1.71258        22.11566         1.70078
   C       -1.17749        24.66720         3.04148
   C       -0.42786        24.96367         4.18649
   C        0.13243        23.73164         4.71175
   C        0.92240        23.57920         5.81365
   C        1.31161        24.67240         6.61578
   N        1.63139        25.55797         7.27037
   C        1.40364        22.31926         6.22805
   N        1.79909        21.30037         6.57550
   C       -0.43661        26.33728         4.49400
   C       -1.17800        27.04089         3.59360
   S       -1.88333        26.06011         2.35233
   H        1.50735        -3.55776         3.44643
   H        0.06129        -3.38793         1.27351
   H       -1.38119         2.43312        -0.38649
   H       -2.34427         9.04756        -1.11523
   H       -2.59600        15.23391        -0.80011
   H        0.34352        20.65459         4.33252
   H        0.07185        26.78424         5.32857
   H       -1.36103        28.09666         3.57732
*
