# ORCA input file
# SCF done       -196.692393416864          0.000965717275
! CAM-B3LYP def2-SVP def2/J RIJCOSX Grid4 TightSCF
%maxcore 5000
%tddft
    Mode sTDDFT
    Ethresh 5.0
    maxcore 5000
end

%pal
  nprocs 6
  end
* xyz 0 1
   C       -0.31739        -3.10714         4.55382
   C        0.55951        -3.81023         5.33209
   F        1.49584        -3.16641         6.03885
   C        0.48483        -5.21491         5.40851
   F        1.36392        -5.87551         6.17338
   C       -0.46984        -5.90040         4.71049
   C       -1.38219        -5.20210         3.89648
   C       -1.30710        -3.78178         3.81320
   C       -2.21904        -3.06336         3.00252
   C       -3.15918        -3.74429         2.27588
   C       -3.20207        -5.16524         2.34061
   C       -2.36214        -5.88484         3.14123
   C       -4.24932        -5.64940         1.42996
   O       -4.46789        -6.82251         1.15146
   C       -4.91222        -4.46914         0.89122
   C       -4.22550        -3.29342         1.37955
   C       -4.49464        -1.98146         1.07594
   C       -5.51272        -1.52117         0.21650
   N       -6.30946        -1.05561        -0.46875
   C       -3.76462        -0.89034         1.59032
   N       -3.21164         0.04153         1.97141
   C       -6.03164        -4.48020         0.08149
   C       -6.78211        -5.54976        -0.39873
   C       -7.97674        -5.37296        -1.13987
   C       -8.59750        -6.56728        -1.48133
   S      -10.07303        -6.78738        -2.40834
   C      -10.28183        -5.12773        -3.12628
   C      -10.22418        -4.05826        -2.06038
   S       -8.51444        -3.74760        -1.51265
   C       -7.90487        -7.69886        -1.00633
   S       -6.45204        -7.24958        -0.15968
   C       -8.33711        -9.01998        -1.13700
   C       -7.65745       -10.14311        -0.71321
   C       -8.14315       -11.47362        -0.71538
   C       -7.27798       -12.38869        -0.18795
   C       -6.05314       -11.82855         0.22615
   S       -6.04127       -10.09963        -0.05914
   C       -4.93878       -12.41712         0.80082
   C       -4.74775       -13.69735         1.35914
   C       -3.52009       -13.85836         1.93139
   C       -2.66834       -12.72344         1.84568
   S       -3.50204       -11.44562         0.99939
   C       -1.35816       -12.70000         2.27171
   C       -0.37439       -11.70656         2.12879
   C       -0.43881       -10.34696         1.82149
   C        0.80729        -9.77278         1.51186
   S        1.05194        -8.25482         0.68757
   C       -0.57989        -7.42131         0.65989
   C       -1.75744        -8.35548         0.58047
   S       -1.86675        -9.37135         2.09050
   C        1.88742       -10.64184         1.72749
   S        1.29661       -12.22517         2.18439
   C        3.27459       -10.47190         1.63917
   C        4.07943        -9.35732         1.62089
   C        5.46308        -9.51566         1.09470
   O        6.02892       -10.55496         0.84249
   C        5.96925        -8.14010         0.90335
   C        7.14355        -7.72295         0.34944
   C        7.39736        -6.33570         0.24179
   C        6.42791        -5.40828         0.72110
   C        6.68402        -4.02791         0.60373
   C        7.84756        -3.58838         0.03668
   C        8.80554        -4.50603        -0.43604
   C        8.58691        -5.85178        -0.33507
   F        9.93760        -4.04765        -0.98996
   F        8.08712        -2.27435        -0.07657
   C        5.22605        -5.87257         1.30534
   C        4.99972        -7.21903         1.39047
   C        3.87967        -7.97628         1.94354
   C        2.89693        -7.45039         2.75365
   C        2.02657        -8.23234         3.53345
   N        1.29530        -8.82886         4.18837
   C        2.65290        -6.07706         2.92976
   N        2.32447        -4.98356         3.06253
   H       -0.24246        -2.03217         4.50372
   H       -0.50818        -6.97750         4.77549
   H       -2.14564        -1.98834         2.97938
   H       -2.44708        -6.95978         3.20759
   H       -6.42288        -3.51255        -0.21092
   H      -11.26163        -5.15352        -3.60316
   H       -9.51254        -4.97654        -3.88405
   H      -10.82588        -4.32880        -1.19220
   H      -10.56188        -3.09814        -2.45060
   H       -9.30925        -9.17171        -1.58973
   H       -9.12421       -11.70920        -1.08862
   H       -7.48343       -13.44073        -0.10109
   H       -5.52060       -14.44509         1.35746
   H       -3.19468       -14.75937         2.42098
   H       -0.98988       -13.63706         2.67238
   H       -0.52366        -6.78134        -0.22196
   H       -0.63134        -6.79591         1.55219
   H       -1.69946        -9.02995        -0.27311
   H       -2.69596        -7.80157         0.54486
   H        3.83158       -11.39998         1.53166
   H        7.86949        -8.43842        -0.00569
   H        5.96163        -3.31141         0.96250
   H        9.33059        -6.54163        -0.70217
   H        4.50889        -5.14932         1.66007
*
