# ORCA input file
# SCF done       -161.576182726064          0.000681555311
! CAM-B3LYP def2-SVP def2/J RIJCOSX Grid4 TightSCF
%maxcore 5000
%tddft
    Mode sTDDFT
    Ethresh 5.0
    maxcore 5000
end

%pal
  nprocs 6
  end
* xyz 0 1
   C       -8.99055         1.51890        -3.96310
   C       -9.36071         1.95719        -2.72354
   C       -8.42413         2.35970        -1.75009
   C       -7.06014         2.34825        -1.96128
   C       -6.64190         1.89598        -3.24491
   C       -7.61032         1.48448        -4.23434
   N       -6.93541         1.11899        -5.30915
   O       -5.65057         1.28756        -5.01658
   N       -5.44860         1.75190        -3.78647
   C       -6.10492         2.75751        -0.97485
   C       -4.73175         2.80372        -1.10335
   C       -4.11189         3.25571         0.06418
   C       -5.02912         3.55240         1.08846
   S       -6.64368         3.28049         0.61699
   C       -4.31181         3.99763         2.22579
   C       -2.94054         3.98505         1.92329
   C       -2.77023         3.51865         0.55257
   C       -1.59263         3.36827        -0.11872
   C       -0.35024         3.66581         0.47996
   N        0.65956         3.90630         0.96786
   C       -1.52614         2.91239        -1.45277
   N       -1.44743         2.54305        -2.53490
   C       -2.14558         4.40897         2.98555
   C       -2.89752         4.74457         4.09910
   S       -4.62335         4.52966         3.81778
   C       -2.42613         5.21381         5.35820
   C       -3.26913         5.50709         6.40389
   C       -2.86207         5.96819         7.65251
   C       -1.44518         6.18466         7.95392
   C       -0.44160         5.96176         7.07760
   S       -0.67834         5.39116         5.47766
   C       -1.41672         6.64998         9.29679
   C       -2.71475         6.72282         9.80960
   C       -2.71586         7.18453        11.14590
   C       -1.45877         7.44040        11.59399
   S       -0.21960         7.13664        10.42711
   C       -3.63817         6.29596         8.78590
   C       -5.04391         6.19984         8.83378
   C       -5.84453         6.49849         9.89380
   C       -7.25291         6.38264         9.87547
   C       -8.08881         5.96600         8.84548
   C       -9.42876         5.99036         9.21112
   C       -9.63597         6.42767        10.53118
   S       -8.16588         6.80793        11.31856
   C      -11.02507         6.41569        10.79349
   C      -11.70271         5.97035         9.64129
   C      -10.72448         5.68873         8.61039
   C      -10.94631         5.23875         7.34098
   C       -9.88947         5.00840         6.43649
   N       -9.03063         4.82112         5.69873
   C      -12.23734         4.97227         6.83795
   N      -13.27521         4.74772         6.40580
   C      -13.08923         5.92886         9.80996
   C      -13.47196         6.33629        11.07059
   S      -12.09047         6.78002        12.07293
   C      -14.79982         6.42646        11.59718
   C      -15.08363         6.85641        12.87829
   C      -16.39262         6.94617        13.39168
   C      -17.49538         6.61207        12.65787
   C      -17.26675         6.16548        11.34359
   C      -15.92921         6.06976        10.80668
   N      -16.03777         5.62682         9.57013
   O      -17.33861         5.45759         9.34682
   N      -18.09549         5.77327        10.39308
   H       -9.69912         1.20967        -4.71221
   H      -10.40777         2.00289        -2.46448
   H       -8.79763         2.69386        -0.79269
   H       -4.23181         2.51736        -2.01081
   H       -1.07271         4.47431         2.96422
   H       -4.32617         5.36169         6.22310
   H        0.59484         6.12872         7.32485
   H       -3.58392         7.32812        11.76212
   H       -1.17019         7.79863        12.56285
   H       -5.51788         5.85185         7.92674
   H       -5.41000         6.84777        10.81704
   H       -7.72777         5.66247         7.88084
   H      -13.80323         5.62183         9.06731
   H      -14.26359         7.13983        13.52258
   H      -16.51322         7.29472        14.40646
   H      -18.49856         6.67836        13.04257
*
