# ORCA input file
# SCF done       -182.211277881166          0.000724651278
! CAM-B3LYP def2-SVP def2/J RIJCOSX Grid4 TightSCF
%maxcore 5000
%tddft
    Mode sTDDFT
    Ethresh 5.0
    maxcore 5000
end

%pal
  nprocs 6
  end
* xyz 0 1
   C        6.89418         4.85847         0.32277
   C        5.53211         5.44155         0.23264
   N        7.09112         3.77154         0.98730
   N        8.29618         3.26204         1.19212
   C        9.56512         4.00327         0.94968
   C        9.31932         4.87034        -0.23262
   C        7.99939         5.40071        -0.42756
   N        8.04705         6.18164        -1.47698
   O        9.31646         6.14333        -1.91357
   N       10.08872         5.34342        -1.16349
   C        9.86992         4.93753         2.13592
   C       10.54959         2.90939         0.81505
   C       11.91252         2.67682         0.78570
   N       12.94906         3.61737         0.81944
   O       14.09357         3.19962         0.83015
   O       12.65411         4.80015         0.83809
   C       12.09593         1.25919         0.77492
   C       10.85126         0.63109         0.84092
   C        9.89981         1.63630         0.87847
   C        8.42812         1.81239         1.03022
   C        7.68694         1.32416        -0.19680
   C        6.78089         0.40294         0.14399
   C        6.82128         0.20167         1.57324
   N        5.97004        -0.72469         2.21384
   O        6.05526        -0.86351         3.42430
   O        5.18856        -1.33914         1.51123
   C        7.78443         1.00303         2.15198
   C        8.18842         1.03027         3.50024
   C        9.31788         1.66701         3.92135
   C        9.94442         1.67643         5.18517
   N        9.54751         1.18243         6.40503
   C        8.29982         0.54005         6.74911
   C        8.33483        -0.95923         6.46517
   C       10.55637         1.32566         7.37741
   O       10.43268         0.95974         8.52950
   C       11.64964         1.97601         6.68477
   C       11.22981         2.19715         5.36054
   C       12.30863         2.83170         4.63649
   O       12.39144         3.21542         3.49042
   N       13.34208         2.93766         5.58459
   C       14.60103         3.55539         5.23941
   C       14.68624         4.99128         5.74917
   C       12.97091         2.43135         6.80640
   C       13.83262         2.35531         7.92393
   C       13.43335         1.80911         9.10480
   C       14.26581         1.63273        10.23689
   S       13.63686         0.80743        11.63887
   C       15.14945         0.91313        12.46510
   C       16.08915         1.58899        11.68370
   C       15.58633         1.98656        10.43514
   C       17.40649         1.89336        12.07105
   N       18.48592         2.18163        12.33144
   C       15.27384         0.32444        13.76379
   C       16.41877         0.19213        14.44104
   C       16.55447        -0.42948        15.79881
   C       17.00001         0.63863        16.81621
   N       17.61028        -1.44665        15.62873
   N       17.64483        -2.46033        16.33855
   C       16.70283        -3.02735        17.05255
   C       15.40910        -2.44278        16.88228
   C       15.33343        -1.12401        16.30303
   N       14.09575        -0.74057        16.36226
   O       13.40373        -1.75586        16.92539
   N       14.19853        -2.78927        17.24336
   C       16.97525        -4.20567        17.90687
   H        4.80867         4.75813         0.66688
   H        5.28965         5.64142        -0.80907
   H        5.49711         6.39083         0.76677
   H        9.08686         5.68600         2.24120
   H       10.82439         5.42276         1.94372
   H        9.94416         4.36386         3.05451
   H       13.05556         0.78213         0.72415
   H       10.67306        -0.42618         0.86266
   H        7.91186         1.70481        -1.17477
   H        6.10892        -0.12991        -0.50242
   H        7.58354         0.44413         4.17508
   H        9.91288         2.17954         3.17594
   H        7.48403         1.02799         6.21283
   H        8.16147         0.69878         7.82280
   H        8.57666        -1.15830         5.42421
   H        7.36403        -1.39464         6.68166
   H        9.08270        -1.43650         7.09357
   H       14.65132         3.55173         4.14687
   H       15.42415         2.95081         5.62976
   H       13.89569         5.59001         5.30397
   H       15.64328         5.42163         5.46905
   H       14.58492         5.03093         6.83203
   H       14.84170         2.72136         7.80751
   H       12.41528         1.45310         9.20018
   H       16.18188         2.51605         9.71325
   H       14.34468        -0.02312        14.19662
   H       17.36284         0.51354        14.02871
   H       17.90833         1.11622        16.45921
   H       17.19682         0.17700        17.78256
   H       16.21526         1.38247        16.92633
   H       18.04572        -4.37655        17.97498
   H       16.49059        -5.08939        17.49085
   H       16.56012        -4.04932        18.90180
*
