# ORCA input file
# SCF done       -187.501562347212          0.000769620028
! CAM-B3LYP def2-SVP def2/J RIJCOSX Grid4 TightSCF
%maxcore 5000
%tddft
    Mode sTDDFT
    Ethresh 5.0
    maxcore 5000
end

%pal
  nprocs 6
  end
* xyz 0 1
   C        0.96567         2.67446        -5.27183
   C        1.45817         3.49280        -6.25454
   C        2.15575         3.02739        -7.38995
   N        2.72489         2.71885        -8.33789
   C        1.39590         4.90269        -6.26982
   N        1.41412         6.04869        -6.34712
   C        1.14790         1.22983        -5.21672
   C        0.66943         0.76420        -3.96024
   C        0.72574        -0.55344        -3.60723
   C        1.26861        -1.48671        -4.51792
   C        1.73961        -1.03115        -5.78333
   C        1.67152         0.34060        -6.11811
   C        2.27443        -1.97174        -6.68716
   C        2.34345        -3.29805        -6.35789
   C        1.88076        -3.74512        -5.11114
   C        1.35488        -2.85881        -4.21067
   C        0.14010         1.89477        -3.18070
   O       -0.30736         1.83099        -2.05449
   C        0.25714         3.08306        -4.06518
   C       -0.27993         4.32693        -3.89645
   C       -0.95742         4.91489        -2.80397
   S       -1.59271         6.53099        -3.05304
   C       -2.18316         6.62835        -1.43329
   C       -1.89060         5.44687        -0.73938
   C       -1.20644         4.49799        -1.51163
   C       -2.21997         5.18514         0.60214
   N       -2.46348         4.92758         1.69387
   C       -2.84129         7.81800        -1.00986
   C       -3.30873         8.04115         0.23631
   C       -3.95405         9.23969         0.71617
   C       -4.27576        10.32152        -0.11179
   C       -4.87530        11.47886         0.37778
   C       -5.14500        11.53324         1.75567
   C       -4.84861        10.45143         2.60561
   C       -4.25926         9.31450         2.07984
   C       -5.22492        10.72092         3.97114
   C       -5.79199        11.99660         4.11476
   S       -5.87597        12.86802         2.59746
   C       -6.22549        12.46688         5.34259
   C       -6.08945        11.64329         6.44393
   C       -5.53132        10.37456         6.31951
   C       -5.09903         9.90904         5.09436
   C       -5.21750        12.60593        -0.45271
   C       -5.25790        12.62305        -1.80059
   C       -5.62419        13.78167        -2.54180
   O       -5.89489        14.95008        -1.93275
   C       -6.22616        15.86299        -2.87354
   C       -6.17000        15.27165        -4.13642
   C       -5.77582        13.92283        -3.92164
   C       -5.57703        12.92071        -4.87973
   N       -5.40679        12.08574        -5.64687
   C       -6.43995        15.89223        -5.36325
   N       -6.65610        16.40437        -6.36561
   C       -6.55102        17.19507        -2.51672
   C       -6.49348        17.65080        -1.23807
   C       -6.81016        18.98808        -0.90205
   C       -6.70269        19.51558         0.35185
   C       -7.00124        20.88105         0.74921
   C       -7.64114        21.83291        -0.00064
   C       -7.92469        23.13807         0.45534
   N       -8.18389        24.21277         0.76448
   C       -8.13706        21.64949        -1.30894
   N       -8.57885        21.57563        -2.36628
   C       -6.54277        21.05376         2.12284
   C       -6.05343        19.80462         2.60101
   C       -6.16657        18.79199         1.53862
   O       -5.86915        17.61871         1.62222
   C       -5.55603        19.65997         3.86433
   C       -5.51753        20.78122         4.72255
   C       -5.99851        22.03646         4.24961
   C       -6.51247        22.15455         2.93808
   C       -5.94888        23.15111         5.11143
   C       -5.44861        23.03354         6.37957
   C       -4.97568        21.79711         6.84434
   C       -5.00996        20.69491         6.03388
   H        0.35942        -0.87868        -2.64476
   H        2.03214         0.65143        -7.08556
   H        2.63097        -1.62247        -7.64505
   H        2.75553        -4.01051        -7.05668
   H        1.94294        -4.79528        -4.86794
   H        0.99694        -3.19706        -3.24926
   H       -0.19411         4.99953        -4.74236
   H       -0.90587         3.53570        -1.13763
   H       -2.93459         8.57424        -1.77723
   H       -3.18409         7.26665         0.97973
   H       -4.04407        10.26738        -1.16243
   H       -4.02344         8.48253         2.72589
   H       -6.65802        13.45136         5.42928
   H       -6.42118        11.98886         7.41116
   H       -5.43631         9.74801         7.19323
   H       -4.66721         8.92448         5.00164
   H       -5.48951        13.50990         0.07841
   H       -5.03769        11.75120        -2.39870
   H       -6.84296        17.84596        -3.33034
   H       -6.18831        16.98298        -0.44552
   H       -7.13954        19.62300        -1.71487
   H       -5.19224        18.70110         4.20296
   H       -6.86369        23.11961         2.60943
   H       -6.31479        24.10058         4.74921
   H       -5.41427        23.89313         7.03191
   H       -4.58351        21.72273         7.84760
   H       -4.64654        19.74056         6.38619
*
