# ORCA input file
# SCF done       -211.696517050621          0.000902476656
! CAM-B3LYP def2-SVP def2/J RIJCOSX Grid4 TightSCF
%maxcore 5000
%tddft
    Mode sTDDFT
    Ethresh 5.0
    maxcore 5000
end

%pal
  nprocs 6
  end
* xyz 0 1
   C       -0.35218         1.76636         2.06144
   C        0.56475         2.77110         1.93430
   C        1.46961         3.13838         2.95273
   N        2.22023         3.47906         3.75102
   C        0.78387         3.50314         0.74853
   N        1.05972         4.08548        -0.20202
   C       -0.44340         0.83273         3.17721
   C       -1.15624        -0.32685         2.74843
   C       -1.36582        -1.39002         3.57993
   C       -0.87186        -1.33836         4.90203
   C       -0.17257        -0.17640         5.34223
   C        0.03383         0.90770         4.45899
   C        0.30857        -0.13615         6.66703
   C        0.11216        -1.19128         7.51569
   C       -0.57545        -2.33464         7.08093
   C       -1.05655        -2.40678         5.80199
   C       -1.59564        -0.14635         1.35600
   O       -2.16230        -0.93264         0.63653
   C       -1.24428         1.27247         1.02392
   C       -1.86038         1.88649        -0.00707
   C       -1.90953         3.29816        -0.27898
   N       -1.74690         4.16047         0.71244
   N       -1.80706         5.44630         0.56008
   C       -1.96855         6.01610        -0.62362
   C       -2.10657         5.20396        -1.77877
   C       -2.14024         3.78569        -1.59166
   N       -2.29925         3.13289        -2.74060
   S       -2.36890         4.21307        -3.92878
   N       -2.19370         5.54497        -3.06041
   C       -2.08793         7.44439        -0.74405
   N       -1.40911         8.36891        -0.01161
   C       -0.38278         8.09499         0.96779
   C        0.91250         7.62304         0.31479
   C       -1.76938         9.68696        -0.38097
   O       -1.29082        10.67986         0.11959
   C       -2.77850         9.50033        -1.40426
   C       -2.94724         8.11014        -1.60823
   C       -4.03731         7.92668        -2.54412
   O       -4.56864         6.94168        -3.00783
   N       -4.44809         9.24083        -2.85774
   C       -5.49521         9.43785        -3.83171
   C       -6.88142         9.39599        -3.19024
   C       -3.71411        10.18732        -2.17807
   C       -3.82713        11.59808        -2.21252
   C       -4.88769        12.34969        -2.61852
   C       -4.89329        13.76074        -2.62946
   S       -3.45981        14.70050        -2.42017
   C       -4.31751        16.20083        -2.59779
   C       -5.70499        15.96384        -2.80734
   C       -6.02587        14.57828        -2.84304
   C       -7.35133        14.16651        -3.04829
   C       -8.33282        15.10907        -3.21156
   C       -9.76143        14.69412        -3.43235
   F       -9.90478        13.35827        -3.45770
   F      -10.58023        15.14065        -2.46784
   F      -10.25109        15.14403        -4.59828
   C       -8.02243        16.49255        -3.17134
   C       -9.04727        17.45691        -3.33530
   N       -9.86654        18.24523        -3.46823
   C       -6.72186        16.91318        -2.97226
   C       -3.76855        17.48566        -2.55697
   C       -2.46410        17.89511        -2.42270
   C       -2.00420        19.27013        -2.40523
   C       -2.77605        20.40488        -2.44311
   C       -2.25463        21.71545        -2.41696
   N       -1.89534        22.80543        -2.40188
   C       -4.18374        20.43569        -2.50892
   N       -5.32783        20.53032        -2.56292
   C       -0.54654        19.24274        -2.32909
   C       -0.11929        17.88375        -2.28177
   C       -1.29730        17.00979        -2.32644
   O       -1.30596        15.78972        -2.30160
   C        1.19991        17.54015        -2.21327
   C        2.17543        18.56217        -2.19104
   C        1.75851        19.92384        -2.23764
   C        0.38312        20.24775        -2.30593
   C        2.73973        20.93516        -2.21670
   C        4.07000        20.61864        -2.15421
   C        4.47923        19.27787        -2.10936
   C        3.55187        18.27103        -2.12671
   H       -1.90345        -2.25986         3.23280
   H        0.55526         1.78015         4.82073
   H        0.83962         0.74456         6.99679
   H        0.48592        -1.15129         8.52777
   H       -0.72221        -3.15730         7.76455
   H       -1.58676        -3.28398         5.46126
   H       -2.41947         1.25864        -0.69190
   H       -0.75230         7.33880         1.66344
   H       -0.21560         9.03721         1.49651
   H        0.77039         6.66620        -0.18290
   H        1.67755         7.49835         1.07576
   H        1.25926         8.35303        -0.41315
   H       -5.41518         8.61038        -4.54356
   H       -5.31878        10.37524        -4.36320
   H       -7.06449         8.40237        -2.78983
   H       -7.64281         9.61655        -3.93352
   H       -6.96490        10.11002        -2.37323
   H       -2.96415        12.10740        -1.80055
   H       -5.80967        11.87506        -2.91483
   H       -7.60275        13.11826        -3.07480
   H       -6.51917        17.97309        -2.94233
   H       -4.50201        18.27190        -2.66545
   H        1.49538        16.50209        -2.17798
   H        0.10292        21.28834        -2.34141
   H        2.41999        21.96627        -2.25137
   H        4.81402        21.40082        -2.13917
   H        5.53263        19.04616        -2.06095
   H        3.86078        17.23658        -2.09196
*
