# ORCA input file
# SCF done       -224.323169127995          0.000386905121
! CAM-B3LYP def2-SVP def2/J RIJCOSX Grid4 TightSCF
%maxcore 5000
%tddft
    Mode sTDDFT
    Ethresh 5.0
    maxcore 5000
end

%pal
  nprocs 6
  end
* xyz 0 1
   C       -3.01493         5.92208         1.22511
   C       -4.20811         6.55427         1.00902
   C       -5.33976         6.39175         1.83629
   N       -6.28645         6.28849         2.47565
   C       -4.45909         7.36597        -0.11541
   N       -4.71113         7.99008        -1.04596
   C       -2.74578         4.89801         2.22156
   C       -1.57601         4.17600         1.83546
   C       -1.10116         3.13281         2.57892
   C       -1.78083         2.76368         3.76082
   C       -2.93968         3.49273         4.15978
   C       -3.41133         4.56617         3.37088
   C       -3.60180         3.11816         5.34672
   C       -3.14615         2.07248         6.10257
   C       -2.00703         1.35431         5.70816
   C       -1.33905         1.69246         4.56268
   C       -1.02916         4.75182         0.59891
   O       -0.09929         4.37383        -0.07368
   C       -1.85040         5.97901         0.35683
   C       -1.39205         6.95419        -0.45656
   C       -1.84565         8.30982        -0.55312
   C       -2.01980         9.23553         0.45351
   N       -1.80207         9.07106         1.83745
   O       -1.60325        10.07518         2.49036
   O       -1.79748         7.93869         2.29992
   C       -2.31214        10.52954        -0.12457
   C       -2.27621        10.41587        -1.47419
   C       -1.99238         9.04906        -1.82333
   C       -1.99127         8.44833        -3.06400
   C       -2.23900         7.06282        -3.29974
   C       -2.37559         6.86295        -4.64096
   C       -2.16478         8.09465        -5.33137
   N       -2.23566         8.11013        -6.73729
   O       -2.21953         7.03000        -7.29937
   O       -2.32986         9.17404        -7.33357
   C       -1.87880         9.10420        -4.39000
   C       -1.36388        10.39740        -4.51152
   C       -1.20673        11.15073        -5.65625
   C       -0.70046        12.44398        -5.65352
   S       -0.22399        13.29232        -4.19414
   C        0.17487        14.77022        -5.05266
   C       -0.02659        14.56022        -6.42496
   C       -0.54085        13.28831        -6.76422
   C       -0.85031        13.17008        -8.13665
   C       -0.60426        14.32550        -8.81556
   C       -0.82769        14.59595       -10.25667
   S        0.05442        15.58289        -7.79384
   C        0.46668        15.95446        -4.36412
   C        0.91588        17.18827        -4.88618
   N        1.62784        17.41522        -6.05465
   O        2.04435        16.43683        -6.68061
   O        1.81737        18.56817        -6.40848
   C        0.61132        18.22387        -3.96381
   C       -0.05391        17.68088        -2.89773
   C       -0.09917        16.26970        -3.04838
   C       -0.62262        15.41011        -2.06944
   C       -0.04388        14.27672        -1.46862
   C       -0.84632        13.87065        -0.42167
   C       -1.98689        14.70939        -0.36833
   N       -3.08664        14.48900         0.47730
   O       -3.09425        13.45496         1.12320
   O       -3.97093        15.32679         0.50889
   C       -1.88786        15.67696        -1.37910
   C       -2.85590        16.57257        -1.86447
   C       -2.87683        16.96990        -3.17773
   C       -3.69312        17.98375        -3.70405
   C       -3.62834        18.37898        -5.01804
   C       -4.38337        19.44559        -5.64842
   C       -5.30004        20.27140        -5.04937
   C       -6.00248        21.29228        -5.72520
   N       -6.60831        22.13566        -6.21405
   C       -5.67452        20.24200        -3.68923
   N       -6.02860        20.29220        -2.59827
   C       -3.98243        19.50972        -7.05050
   C       -2.99219        18.51282        -7.28424
   C       -2.74664        17.76766        -6.04589
   O       -1.98317        16.82423        -5.91763
   C       -2.40793        18.34481        -8.50752
   C       -2.79890        19.17823        -9.57749
   C       -3.79826        20.17009        -9.35669
   C       -4.38119        20.32383        -8.07702
   C       -4.18701        20.99200       -10.43335
   C       -3.61554        20.84429       -11.66848
   C       -2.62895        19.87038       -11.88331
   C       -2.22901        19.05452       -10.85978
   H       -0.21587         2.59651         2.27066
   H       -4.28032         5.11343         3.70100
   H       -4.47887         3.67294         5.64538
   H       -3.66099         1.79251         7.00928
   H       -1.66116         0.53254         6.31708
   H       -0.46097         1.14378         4.25493
   H       -0.54051         6.68962        -1.07880
   H       -2.54820        11.39543         0.46855
   H       -2.54492        11.18524        -2.17082
   H       -2.40744         6.33003        -2.53618
   H       -2.61560         5.94263        -5.13991
   H       -1.03314        10.85459        -3.58717
   H       -1.51611        10.75352        -6.61262
   H       -1.24958        12.27848        -8.58511
   H       -1.69478        15.24481       -10.38951
   H       -1.00786        13.66799       -10.79341
   H        0.03569        15.09831       -10.68954
   H        0.88838        19.25071        -4.10919
   H       -0.39450        18.20118        -2.02330
   H        0.92386        13.87943        -1.70891
   H       -0.65348        13.06508         0.26115
   H       -3.62885        16.90149        -1.18005
   H       -2.23350        16.46234        -3.88158
   H       -4.36684        18.49091        -3.02643
   H       -1.64947        17.58978        -8.65370
   H       -5.13043        21.08772        -7.94468
   H       -4.94465        21.74262       -10.26342
   H       -3.91965        21.47954       -12.48654
   H       -2.18681        19.77071       -12.86311
   H       -1.46599        18.30626       -11.01740
*
