# ORCA input file
# SCF done       -193.403948923404          0.000735520604
! CAM-B3LYP def2-SVP def2/J RIJCOSX Grid4 TightSCF
%maxcore 5000
%tddft
    Mode sTDDFT
    Ethresh 5.0
    maxcore 5000
end

%pal
  nprocs 6
  end
* xyz 0 1
   C       -2.48087         2.25774        -3.07869
   C       -2.41000         3.62138        -3.16225
   C       -3.32002         4.42533        -3.87863
   N       -4.01764         5.14089        -4.44274
   C       -1.37002         4.38195        -2.58799
   N       -0.52085         5.03241        -2.17019
   C       -3.36229         1.41461        -3.87508
   C       -2.79616         0.10764        -3.95209
   C       -3.39018        -0.88644        -4.67611
   C       -4.60091        -0.61627        -5.35277
   C       -5.18141         0.68267        -5.26048
   C       -4.54020         1.69592        -4.51180
   C       -6.39569         0.93214        -5.93179
   C       -7.00704        -0.04986        -6.66253
   C       -6.43379        -1.32709        -6.75496
   C       -5.25663        -1.60391        -6.11450
   C       -1.56748         0.05646        -3.14086
   O       -0.78903        -0.85746        -3.01066
   C       -1.52471         1.37317        -2.43036
   C       -0.79875         1.49669        -1.29078
   C       -0.96968         2.49297        -0.29509
   S       -2.46510         3.38118        -0.12880
   C       -1.86444         4.42718         1.14457
   C       -0.58749         4.00779         1.46058
   C       -0.10495         2.94313         0.67768
   O        1.17334         2.68750         1.05581
   C        1.46294         3.56241         2.04540
   S        2.86699         3.63172         2.83092
   O        0.41039         4.37416         2.30950
   C       -2.68301         5.53099         1.48982
   N       -2.52851         6.42760         2.51213
   C       -1.48458         6.46273         3.50972
   C       -0.30249         7.30906         3.04650
   C       -3.50431         7.44866         2.45859
   O       -3.57203         8.34674         3.27148
   C       -4.30524         7.12659         1.29901
   C       -3.79500         5.92722         0.74865
   C       -4.54749         5.62076        -0.44275
   O       -4.48888         4.67887        -1.21638
   N       -5.45931         6.67275        -0.55860
   C       -6.37795         6.74321        -1.67105
   C       -5.85291         7.64593        -2.78409
   C       -5.33261         7.58167         0.47049
   C       -6.13253         8.74204         0.59573
   C       -6.04250         9.57645         1.66557
   C       -6.82512        10.74596         1.83702
   S       -6.75396        11.61008         3.34870
   C       -7.90579        12.78322         2.79962
   C       -8.30224        12.50166         1.48478
   C       -7.69969        11.35706         0.95501
   C       -9.23044        13.28857         0.77968
   N       -9.98818        13.91962         0.19483
   C       -8.37779        13.84872         3.59850
   C       -8.05175        14.02653         4.90699
   C       -8.58308        15.09068         5.66991
   C       -8.36936        15.27005         7.00678
   C       -8.91051        16.32887         7.84035
   C       -9.59510        17.43916         7.41845
   C      -10.08864        18.43930         8.28294
   N      -10.51684        19.28609         8.92889
   C       -9.88773        17.76406         6.07715
   N      -10.15788        18.10458         5.01417
   C       -8.56445        16.02532         9.22447
   C       -7.76580        14.84628         9.24736
   C       -7.59196        14.34290         7.87517
   O       -6.95718        13.36626         7.53640
   C       -7.28732        14.32016        10.41280
   C       -7.59808        14.95675        11.63491
   C       -8.40388        16.13195        11.62212
   C       -8.87976        16.65685        10.39884
   C       -8.71561        16.75477        12.84792
   C       -8.25398        16.24331        14.03012
   C       -7.45914        15.08723        14.04134
   C       -7.13776        14.45789        12.86930
   H       -2.94398        -1.86827        -4.73096
   H       -5.00054         2.66908        -4.44142
   H       -6.83113         1.91794        -5.86038
   H       -7.93602         0.15194        -7.17445
   H       -6.92983        -2.09028        -7.33560
   H       -4.81097        -2.58552        -6.18184
   H       -0.06349         0.72422        -1.09197
   H       -1.17069         5.44374         3.73684
   H       -1.92422         6.91184         4.40474
   H        0.09744         6.93384         2.10797
   H        0.48389         7.27974         3.79458
   H       -0.61753         8.33999         2.90582
   H       -7.35383         7.08186        -1.31270
   H       -6.47638         5.72269        -2.05053
   H       -5.62423         8.64015        -2.40609
   H       -6.59864         7.73037        -3.56931
   H       -4.95126         7.21662        -3.21356
   H       -6.84228         8.94758        -0.19152
   H       -5.34126         9.34547         2.45682
   H       -7.89302        11.00363        -0.04171
   H       -9.05926        14.53911         3.11389
   H       -7.38412        13.33012         5.39538
   H       -9.22190        15.78738         5.14179
   H       -6.68169        13.42608        10.40152
   H       -9.48913        17.54607        10.42474
   H       -9.32702        17.64510        12.83403
   H       -8.49889        16.72704        14.96379
   H       -7.10323        14.69769        14.98336
   H       -6.52648        13.56729        12.87168
*
