# ORCA input file
# SCF done       -167.084069260373          0.000599685929
! CAM-B3LYP def2-SVP def2/J RIJCOSX Grid4 TightSCF
%maxcore 5000
%tddft
    Mode sTDDFT
    Ethresh 5.0
    maxcore 5000
end

%pal
  nprocs 6
  end
* xyz 0 1
   C        0.62864         0.58429         0.01069
   F        1.30837         1.35990         0.84594
   C       -0.10630         1.14700        -1.03652
   C       -0.22309         2.65481        -1.13420
   O       -0.20593         3.34544        -0.16107
   O       -0.34263         3.16634        -2.35779
   C       -0.76071         0.26268        -1.89360
   F       -1.48099         0.74272        -2.92298
   C       -0.70024        -1.11140        -1.71690
   F       -1.37988        -1.89773        -2.55873
   C        0.02951        -1.67925        -0.66866
   C        0.69683        -0.79304         0.18166
   F        1.44524        -1.27860         1.17914
   C        0.09397        -3.12456        -0.47174
   C        0.28190        -4.03074        -1.52857
   N        0.33190        -5.32288        -1.33909
   C        0.21330        -5.78664        -0.09304
   N        0.04062        -5.00823         0.97939
   C       -0.02471        -3.71118         0.79386
   C        0.28076        -7.21941         0.05507
   N        0.30209        -7.90072         1.24408
   C        0.19774        -7.36449         2.58017
   C       -1.25293        -7.07847         2.95553
   C        0.38416        -9.29195         1.04085
   O        0.42341       -10.09971         1.94634
   C        0.41634        -9.44215        -0.39596
   C        0.35473        -8.14614        -0.97474
   C        0.38294        -8.30058        -2.42068
   O        0.35620        -7.51991        -3.33990
   N        0.46542        -9.70332        -2.60692
   C        0.47716       -10.28066        -3.92960
   C       -0.89245       -10.82558        -4.32757
   C        0.48097       -10.38355        -1.41757
   C        0.55093       -11.80356        -1.33059
   C        0.59969       -12.48514        -0.16814
   C        0.64740       -13.93324        -0.14823
   N        0.84862       -14.52199         1.03359
   C        0.89131       -15.83862         1.05526
   C        0.72202       -16.60892        -0.08806
   C        0.50078       -15.91118        -1.28078
   N        0.47550       -14.58113        -1.29749
   C        0.27473       -16.60955        -2.53706
   C       -0.00130       -15.92899        -3.66010
   C       -0.27128       -16.45502        -4.97922
   C       -0.38094       -17.81079        -5.31424
   C       -0.64151       -18.23444        -6.61258
   C       -0.82726       -17.32462        -7.65657
   C       -0.73500       -15.97222        -7.32754
   C       -0.46136       -15.55227        -6.03755
   F       -0.38041       -14.23645        -5.79902
   F       -0.91220       -15.03783        -8.28024
   C       -1.03428       -17.84105        -9.06576
   O       -0.56011       -18.87488        -9.42718
   O       -1.77345       -17.08566        -9.87610
   F       -0.74793       -19.53884        -6.83489
   F       -0.24075       -18.75082        -4.37375
   H       -0.43268         2.51970        -3.07085
   H        0.41336        -3.69872        -2.54932
   H       -0.19966        -3.11757         1.68152
   H        0.79253        -6.45321         2.64991
   H        0.60690        -8.13107         3.24425
   H       -1.66578        -6.31382         2.30300
   H       -1.30230        -6.72677         3.98177
   H       -1.84839        -7.98396         2.86686
   H        1.23614       -11.06605        -3.97876
   H        0.76113        -9.47241        -4.60919
   H       -1.23344       -11.57838        -3.62055
   H       -0.83482       -11.27584        -5.31442
   H       -1.62056       -10.01880        -4.35214
   H        0.56740       -12.36713        -2.25243
   H        0.60876       -11.99127         0.79289
   H        1.06506       -16.29067         2.02346
   H        0.75101       -17.68573        -0.06063
   H        0.33347       -17.68549        -2.49645
   H       -0.02723       -14.85035        -3.58140
   H       -2.03436       -16.22613        -9.51862
*
