# ORCA input file
# SCF done       -176.640684099866          0.000313379565
! CAM-B3LYP def2-SVP def2/J RIJCOSX Grid4 TightSCF
%maxcore 5000
%tddft
    Mode sTDDFT
    Ethresh 5.0
    maxcore 5000
end

%pal
  nprocs 6
  end
* xyz 0 1
   C       10.14587        -4.59103         3.81072
   S        8.89604        -5.74738         3.59158
   C        7.93903        -5.03002         4.85858
   C        8.58804        -3.91451         5.38705
   C        9.85072        -3.69259         4.78362
   C        8.02578        -2.96078         6.33639
   O        8.65326        -2.07901         6.86724
   C        6.69829        -5.63057         5.18775
   C        6.06166        -5.52875         6.38737
   C        4.79082        -6.08086         6.66951
   C        4.32149        -6.50330         7.91165
   N        4.95360        -6.39115         9.15871
   O        4.35795        -6.82702        10.13035
   O        6.05437        -5.86221         9.21751
   C        3.05685        -7.15520         7.74201
   C        2.74586        -7.17302         6.41659
   C        3.75869        -6.47078         5.69296
   C        3.68706        -6.06478         4.37009
   C        4.19065        -4.84101         3.83592
   C        3.72047        -4.69488         2.56626
   C        2.94532        -5.84231         2.20870
   N        2.37399        -5.91582         0.93136
   O        1.49872        -6.74093         0.69945
   O        2.77118        -5.11692         0.09789
   C        2.92141        -6.73354         3.29807
   C        2.55380        -8.08131         3.44168
   C        1.85436        -8.86790         2.55863
   C        1.56140       -10.21241         2.82736
   N        0.84788       -11.01788         1.96989
   C        0.29055       -10.62977         0.69394
   C       -1.00109        -9.83306         0.85162
   C        0.65994       -12.30608         2.48268
   O        0.06256       -13.18870         1.89896
   C        1.32868       -12.28176         3.77073
   C        1.87739       -10.99970         3.95163
   C        2.55449       -10.98155         5.23329
   O        3.18800       -10.11844         5.80830
   N        2.35374       -12.27074         5.75190
   C        2.83793       -12.63355         7.06262
   C        1.72390       -12.60703         8.10588
   C        1.62677       -13.06436         4.89912
   C        1.29578       -14.40652         5.17701
   C        0.57615       -15.17245         4.31044
   C        0.19899       -16.53267         4.50536
   C       -0.49845       -17.18507         3.47982
   N       -0.90302       -18.43782         3.49539
   C       -0.66225       -19.19971         4.55655
   C        0.02929       -18.66836         5.69436
   C        0.46799       -17.31647         5.67195
   N        1.11194       -16.80587         6.74068
   C        1.31471       -17.59073         7.76648
   C        0.88449       -18.92931         7.77895
   N        0.25223       -19.45378         6.76222
   C       -1.09620       -20.56117         4.55854
   C       -1.74661       -21.12133         3.51276
   C       -2.19052       -22.46745         3.46095
   S       -1.94596       -23.58502         4.78396
   C       -2.73447       -24.86454         3.93002
   C       -3.14601       -24.44614         2.66866
   C       -2.84440       -23.09047         2.42527
   C       -3.70988       -25.30650         1.63270
   O       -4.26339       -24.91056         0.63830
   C       -2.91421       -26.13216         4.58746
   C       -3.92579       -26.97117         4.37386
   H       11.02650        -4.64578         3.20180
   H       10.48552        -2.87464         5.07264
   H        6.93896        -3.07229         6.50857
   H        6.27779        -6.27421         4.42509
   H        6.58056        -5.09287         7.23120
   H        2.48001        -7.55150         8.55569
   H        1.82952        -7.53306         5.99257
   H        4.74467        -4.11111         4.39287
   H        3.87042        -3.85937         1.90870
   H        2.88755        -8.54665         4.35951
   H        1.48982        -8.44560         1.63573
   H        0.08633       -11.56173         0.15962
   H        1.02989       -10.05226         0.13416
   H       -1.72886       -10.40682         1.42081
   H       -1.41538        -9.61983        -0.12929
   H       -0.81799        -8.88979         1.35955
   H        3.59965       -11.89208         7.31944
   H        3.30438       -13.62119         7.01793
   H        1.28386       -11.61403         8.15536
   H        2.13149       -12.85278         9.08234
   H        0.94258       -13.32291         7.86116
   H        1.62779       -14.83842         6.10793
   H        0.25083       -14.73495         3.37442
   H       -0.73664       -16.63853         2.57566
   H        1.83124       -17.15543         8.61183
   H        1.05784       -19.57293         8.63031
   H       -0.87242       -21.13012         5.45006
   H       -1.94813       -20.51072         2.64282
   H       -3.09189       -22.60514         1.49814
   H       -3.55340       -26.38761         1.81029
   H       -2.17423       -26.36335         5.34334
   H       -4.72622       -26.74611         3.69033
   H       -3.99386       -27.90399         4.90591
*
