# ORCA input file
# SCF done       -195.346054104905          0.000584156347
! CAM-B3LYP def2-SVP def2/J RIJCOSX Grid4 TightSCF
%maxcore 5000
%tddft
    Mode sTDDFT
    Ethresh 5.0
    maxcore 5000
end

%pal
  nprocs 6
  end
* xyz 0 1
   C       -2.22512        -0.48232        -5.40425
   N       -1.94388        -0.11751        -4.12312
   C       -1.28790        -0.93962        -3.13779
   C       -2.21862        -2.02170        -2.59665
   C       -2.42791         1.17547        -3.83885
   O       -2.28946         1.71573        -2.75227
   C       -3.04113         1.60074        -5.06939
   C       -2.89207         0.53895        -6.01879
   C       -3.48791         0.97049        -7.26839
   O       -3.60627         0.43086        -8.34524
   N       -3.94901         2.27316        -6.99388
   C       -4.65293         3.04195        -7.99169
   C       -6.16306         3.01722        -7.76862
   C       -3.69530         2.65645        -5.69652
   C       -4.04528         3.92683        -5.17317
   C       -3.81161         4.25111        -3.87449
   C       -4.10848         5.50890        -3.29541
   C       -3.90481         5.92880        -2.00755
   C       -4.34585         7.30633        -1.87561
   N       -4.81191         7.72901        -3.08851
   C       -4.68921         6.68756        -4.01217
   O       -5.01452         6.79192        -5.17105
   C       -5.17212         9.07294        -3.45470
   C       -4.11944         7.73067        -0.60991
   C       -3.50970         6.57026         0.10861
   O       -3.19262         6.48440         1.26807
   N       -3.41848         5.51652        -0.81149
   C       -2.90933         4.21338        -0.47184
   C       -4.37250         8.99943         0.02532
   C       -5.52532         9.67637         0.22850
   C       -5.23446        10.92331         0.92553
   N       -3.88964        10.99742         1.12890
   C       -3.28309         9.85157         0.59796
   O       -2.09410         9.66703         0.58016
   C       -3.14813        12.12081         1.63718
   C       -6.38687        11.60502         1.11744
   C       -7.47632        10.75126         0.55240
   O       -8.66620        10.93606         0.57303
   N       -6.87198         9.60374         0.02464
   C       -7.61738         8.47017        -0.45352
   C       -6.63661        12.89275         1.71567
   C       -6.44805        13.35108         2.97253
   C       -6.85512        14.74959         3.04575
   N       -7.31402        15.12208         1.82573
   C       -7.21421        14.03901         0.94440
   O       -7.52493        14.08046        -0.21779
   C       -7.84010        16.40193         1.43032
   C       -6.73746        15.17752         4.33344
   C       -6.23880        14.00417         5.11265
   O       -5.99101        13.92565         6.29213
   N       -6.06590        12.94762         4.21818
   C       -5.71706        11.61332         4.62728
   C       -6.91064        16.49764         4.87428
   N       -7.55308        16.78896         6.04573
   C       -8.30504        15.87710         6.87532
   C       -9.53515        15.33610         6.15274
   C       -7.51617        18.17564         6.33117
   O       -8.04337        18.67182         7.30308
   C       -6.75336        18.73697         5.24173
   C       -6.41584        17.67943         4.34849
   C       -5.56521        18.23348         3.32582
   O       -5.00536        17.73665         2.36607
   N       -5.46236        19.60270         3.65329
   C       -4.70040        20.47819         2.79756
   C       -5.59451        21.22080         1.80629
   C       -6.16546        19.90818         4.79741
   C       -6.29213        21.15816         5.49635
   C       -5.88668        22.38194         5.15599
   H       -1.92048        -1.43874        -5.78664
   H       -0.98393        -0.26958        -2.32895
   H       -0.39683        -1.39220        -3.58330
   H       -3.09249        -1.56724        -2.13624
   H       -1.69969        -2.61535        -1.84931
   H       -2.54967        -2.67929        -3.39742
   H       -4.41539         2.57651        -8.95260
   H       -4.28020         4.06975        -7.99329
   H       -6.52616         1.99254        -7.79464
   H       -6.65881         3.58233        -8.55294
   H       -6.42068         3.45500        -6.80689
   H       -4.49853         4.65271        -5.83024
   H       -3.36254         3.51634        -3.22022
   H       -6.01293         9.43242        -2.86073
   H       -5.45052         9.05781        -4.50807
   H       -4.32590         9.74841        -3.31151
   H       -2.52781         4.26934         0.54677
   H       -2.10917         3.91902        -1.15014
   H       -3.70156         3.46465        -0.52234
   H       -3.40920        12.32843         2.67606
   H       -3.34566        13.01296         1.03960
   H       -2.09082        11.86474         1.57456
   H       -7.34091         8.21990        -1.47853
   H       -8.67252         8.73999        -0.41788
   H       -7.44075         7.59975         0.18220
   H       -7.04626        17.14716         1.41017
   H       -8.62293        16.71743         2.12103
   H       -8.25387        16.28524         0.42943
   H       -6.54631        10.92722         4.44134
   H       -5.50386        11.64642         5.69546
   H       -4.83682        11.25594         4.09150
   H       -8.60964        16.46001         7.74896
   H       -7.65797        15.05947         7.20069
   H       -9.24796        14.74822         5.28270
   H      -10.17370        16.15430         5.82604
   H      -10.10294        14.70048         6.82628
   H       -4.01186        19.83136         2.24449
   H       -4.11571        21.16860         3.40902
   H       -6.08838        20.50716         1.15081
   H       -4.99441        21.89185         1.19757
   H       -6.35851        21.79826         2.32237
   H       -6.81873        21.02760         6.43431
   H       -5.38237        22.62140         4.23808
   H       -6.07067        23.21135         5.81768
*
