# ORCA input file
# SCF done       -203.939516220827          0.000589822906
! CAM-B3LYP def2-SVP def2/J RIJCOSX Grid4 TightSCF
%maxcore 5000
%tddft
    Mode sTDDFT
    Ethresh 5.0
    maxcore 5000
end

%pal
  nprocs 6
  end
* xyz 0 1
   C       -1.70947         1.06925         4.04548
   C       -2.15743        -0.16526         4.46047
   C       -1.47233        -0.98657         5.37684
   N       -0.96791        -1.70729         6.11598
   C       -3.35439        -0.78554         4.05560
   N       -4.31666        -1.35492         3.78290
   C       -0.48082         1.71458         4.50409
   C       -0.38565         2.98944         3.89144
   C        0.65985         3.84783         4.12365
   C        1.66461         3.42956         5.00320
   C        1.56288         2.15626         5.60839
   C        0.50225         1.28684         5.37352
   S        2.91358         1.84821         6.65462
   C        3.58836         3.39645         6.27995
   C        2.84286         4.11545         5.41287
   C       -1.55494         3.18718         3.01695
   O       -1.79319         4.17846         2.34207
   C       -2.35261         1.96928         3.12111
   C       -3.52656         1.70805         2.43841
   C       -4.26021         2.49558         1.56493
   S       -3.88362         4.11354         1.06288
   C       -5.32271         4.24571         0.09481
   C       -6.10992         3.06835         0.17392
   C       -5.49270         2.07422         0.97830
   C       -6.10368         0.82945         1.13107
   C       -7.32194         0.55601         0.53650
   C       -7.93089        -0.76264         0.68675
   C       -7.70934        -1.59888         1.69434
   C       -7.96751         1.56666        -0.22334
   C       -9.31438         1.31996        -0.83190
   C       -7.36304         2.79054        -0.39026
   C       -5.46298         5.45651        -0.59698
   C       -6.39506         5.81085        -1.53850
   C       -6.47715         7.05109        -2.18427
   S       -7.43615         7.14339        -3.63421
   C       -6.92264         8.76327        -3.99895
   C       -6.11837         9.26445        -2.94894
   C       -5.87788         8.30844        -1.91965
   C       -5.18568         8.71093        -0.77166
   C       -4.69353         9.99491        -0.64660
   C       -3.97463        10.38085         0.56553
   C       -3.21819         9.56279         1.28622
   C       -4.93613        10.94596        -1.67356
   C       -4.43868        12.35243        -1.54133
   C       -5.65119        10.57756        -2.78627
   C       -7.32681         9.33999        -5.20896
   C       -6.69703        10.36671        -5.86571
   C       -7.16984        10.96321        -7.03755
   S       -8.74518        10.63148        -7.68239
   C       -8.54357        11.74933        -9.00307
   C       -7.26335        12.34805        -8.95119
   C       -6.49249        11.91441        -7.84081
   C       -5.20551        12.42815        -7.65371
   C       -4.67811        13.34700        -8.53802
   C       -3.33348        13.87923        -8.32431
   C       -2.32803        13.19793        -7.79080
   C       -5.45166        13.78224        -9.64968
   C       -4.88239        14.76514       -10.62560
   C       -6.71669        13.28337        -9.84102
   C       -9.57092        12.00992        -9.90891
   C      -10.82788        11.46223        -9.84196
   C      -11.85063        11.81382       -10.72635
   C      -13.17537        11.45279       -10.66702
   C      -13.95624        10.83442        -9.62851
   C      -13.72705        10.88554        -8.27252
   C      -14.55348        10.27263        -7.31138
   N      -15.17013         9.77573        -6.47876
   C      -12.71556        11.64667        -7.65468
   N      -11.95449        12.28638        -7.07838
   C      -15.18150        10.32956       -10.24701
   C      -15.24591        10.80899       -11.58021
   C      -14.02103        11.57922       -11.87518
   O      -13.74136        12.16157       -12.90256
   C      -16.30858        10.54392       -12.40819
   C      -17.35185         9.76041       -11.90319
   C      -17.27007         9.27402       -10.57818
   C      -16.19828         9.54881        -9.73547
   S      -18.66345         8.32121       -10.17138
   C      -19.33239         8.58290       -11.74570
   C      -18.55349         9.34438       -12.54403
   H        0.70261         4.81254         3.64207
   H        0.47300         0.32639         5.86015
   H        4.51633         3.67548         6.74002
   H        3.10449         5.09868         5.06531
   H       -3.95927         0.73390         2.61414
   H       -5.62195         0.05431         1.70495
   H       -8.61686        -1.05522        -0.09645
   H       -7.06150        -1.36199         2.52091
   H       -8.18749        -2.56274         1.73215
   H      -10.01647         0.96180        -0.08091
   H       -9.24808         0.56805        -1.61849
   H       -9.70998         2.23336        -1.26921
   H       -7.88196         3.55082        -0.95021
   H       -4.67523         6.16466        -0.38169
   H       -7.09377         5.06841        -1.89451
   H       -5.08561         8.03778         0.06234
   H       -4.07384        11.41403         0.86878
   H       -3.05159         8.53475         1.01108
   H       -2.71590         9.90075         2.17622
   H       -3.36826        12.36412        -1.34197
   H       -4.94051        12.86091        -0.71804
   H       -4.63061        12.91361        -2.45254
   H       -5.89580        11.32354        -3.52543
   H       -8.18168         8.88355        -5.69400
   H       -5.74732        10.72409        -5.49696
   H       -4.62130        12.11736        -6.80167
   H       -3.17181        14.90093        -8.63976
   H       -2.42511        12.16614        -7.49626
   H       -1.35830        13.64289        -7.64819
   H       -4.73674        15.73577       -10.15118
   H       -5.55361        14.89774       -11.47020
   H       -3.91730        14.42352       -10.99657
   H       -7.29686        13.61159       -10.69016
   H       -9.36883        12.74132       -10.68043
   H      -11.02725        10.73423        -9.06832
   H      -11.57692        12.38862       -11.60555
   H      -16.33586        10.93057       -13.41518
   H      -16.17961         9.15255        -8.73376
   H      -20.28264         8.14252       -11.97748
   H      -18.80616         9.61162       -13.55433
*
