# ORCA input file
# SCF done       -179.993955212680          0.000534893332
! CAM-B3LYP def2-SVP def2/J RIJCOSX Grid4 TightSCF
%maxcore 5000
%tddft
    Mode sTDDFT
    Ethresh 5.0
    maxcore 5000
end

%pal
  nprocs 6
  end
* xyz 0 1
   C       -0.89040        -2.51369        -1.53562
   C       -1.14367        -3.85487        -1.42597
   C       -0.46895        -4.84964        -2.16199
   N        0.04755        -5.69852        -2.73711
   C       -2.10514        -4.41278        -0.55850
   N       -2.86607        -4.92488         0.13175
   C        0.08526        -1.90179        -2.43429
   C        0.07073        -0.49869        -2.24549
   C        0.86128         0.35979        -2.96751
   C        1.67861        -0.18988        -3.95811
   C        1.66312        -1.58814        -4.16628
   C        0.89345        -2.46099        -3.40701
   S        2.68484        -2.04382        -5.49707
   C        3.11281        -0.37059        -5.74632
   C        2.53200         0.48425        -4.87364
  Br        4.24552         0.10224        -7.16428
   C       -0.95133        -0.15359        -1.24231
   O       -1.14259         0.93382        -0.74338
   C       -1.61945        -1.43589        -0.89659
   C       -2.78290        -1.48652        -0.19216
   C       -3.64613        -0.34258        -0.10524
   C       -4.32528         0.01885         1.03378
   O       -4.25600        -0.62791         2.19691
   C       -4.92246        -0.06017         3.30206
   S       -5.20439         1.50764         0.82864
   C       -4.68194         1.61656        -0.84094
   O       -5.09425         2.59278        -1.65656
   C       -5.98305         3.54961        -1.12730
   C       -3.88555         0.56977        -1.20317
   C       -3.36584         0.36225        -2.54126
   C       -3.29186        -0.85864        -3.09120
   C       -2.53919        -1.22413        -4.27092
   N       -2.54717        -2.53348        -4.55141
   C       -1.79419        -2.94655        -5.55082
   C       -1.00623        -2.07734        -6.28805
   C       -1.05994        -0.72631        -5.92842
   N       -1.82804        -0.30972        -4.92395
   C       -0.23825         0.25108        -6.62521
   C       -0.26101         1.55510        -6.35379
   C        0.58285         2.54223        -7.04857
   S        1.42927         3.75815        -5.89895
   C        0.39031         4.71368        -6.91095
   C       -0.13356         3.72287        -7.66037
   C       -1.08965         3.71048        -8.74902
   O       -1.62085         4.68057        -9.23886
   O       -1.31692         2.44729        -9.17292
   C       -2.20045         2.33488       -10.28062
   C       -3.52880         2.92690        -9.96842
   C       -4.34771         3.62041       -10.77205
   C       -4.25179         3.98416       -12.17859
   C       -3.72007         3.22067       -13.17957
   C       -3.67123         3.61830       -14.53349
   N       -3.59674         3.90618       -15.64141
   C       -3.26966         1.89903       -12.98249
   N       -2.94745         0.80406       -12.86555
   C       -5.00160         5.21996       -12.34939
   C       -5.75346         5.46831       -11.17173
   C       -5.45645         4.42843       -10.16925
   O       -5.95375         4.27303        -9.08232
   C       -6.59821         6.54599       -11.05247
   C       -6.69835         7.42177       -12.13823
   C       -5.93236         7.17191       -13.30374
   C       -5.08372         6.08001       -13.42915
   S       -6.20181         8.38389       -14.51779
   C       -7.32743         9.19667       -13.46287
   C       -7.49283         8.59410       -12.26099
  Br       -8.17626        10.76223       -14.04677
   H        0.82867         1.42387        -2.79643
   H        0.92361        -3.52041        -3.60003
   H        2.68787         1.54782        -4.87535
   H       -3.12666        -2.40019         0.27313
   H       -4.74901        -0.73481         4.13748
   H       -5.99665         0.02608         3.11031
   H       -4.52070         0.93105         3.53412
   H       -6.18492         4.25174        -1.93325
   H       -5.53420         4.07744        -0.27938
   H       -6.91777         3.08145        -0.80165
   H       -2.99531         1.22759        -3.07151
   H       -3.74443        -1.70902        -2.59905
   H       -1.81730        -4.00997        -5.75340
   H       -0.37999        -2.42195        -7.09459
   H        0.41117        -0.14203        -7.39642
   H       -0.93200         1.92751        -5.59305
   H        1.31899         2.07973        -7.70642
   H        0.26437         5.77823        -6.88917
   H       -2.27916         1.25992       -10.47421
   H       -1.74709         2.82352       -11.15171
   H       -3.82845         2.85000        -8.92841
   H       -7.16439         6.70882       -10.14894
   H       -4.51401         5.93194       -14.33176
   H       -8.14770         8.96033       -11.49165
*
