# ORCA input file
# SCF done       -194.794283959205          0.000437863041
! CAM-B3LYP def2-SVP def2/J RIJCOSX Grid4 TightSCF
%maxcore 5000
%tddft
    Mode sTDDFT
    Ethresh 5.0
    maxcore 5000
end

%pal
  nprocs 6
  end
* xyz 0 1
   C      -15.62544         3.72752        -1.56067
   C      -15.82510         3.99862        -2.88501
   F      -16.85032         4.77608        -3.26471
   C      -14.96024         3.47471        -3.86625
   F      -15.18177         3.76838        -5.15773
   C      -13.90586         2.68322        -3.51008
   C      -13.66715         2.39624        -2.15205
   C      -14.53565         2.93100        -1.15679
   C      -14.29437         2.67891         0.21512
   C      -13.22360         1.90475         0.57341
   C      -12.37849         1.35687        -0.43605
   C      -12.57208         1.59223        -1.76688
   C      -11.31845         0.58374         0.20604
   O      -10.46849        -0.11746        -0.33155
   C      -11.47818         0.78602         1.65704
   C      -12.70439         1.51392         1.88444
   C      -13.30861         1.75200         3.09118
   C      -12.76111         1.35023         4.32598
   N      -12.34518         1.03594         5.34879
   C      -14.56414         2.37230         3.24111
   N      -15.59281         2.84565         3.43196
   C      -10.51262         0.35407         2.53501
   N       -9.44407        -0.27913         2.03292
   C       -8.30870        -0.70229         2.62675
   S       -8.13246        -0.86230         4.34191
   C       -6.51701        -1.45066         4.09557
   N       -5.76903        -1.79173         5.22993
   O       -4.64032        -2.21122         5.05691
   O       -6.31245        -1.64006         6.30986
   C       -6.14105        -1.50666         2.77994
   C       -7.15718        -1.07450         1.90774
   C       -7.07109        -0.92847         0.48281
   C       -6.00529        -1.19972        -0.29888
   C       -6.00024        -0.93519        -1.70208
   C       -6.88931        -0.17597        -2.45357
   C       -7.84308         0.71097        -1.92767
   N       -8.54074         1.52908        -1.52512
   C       -6.57180        -0.18480        -3.83846
   C       -5.40013        -0.88512        -4.09881
   S       -4.72221        -1.61216        -2.69295
   S       -4.85899        -0.80231        -5.74660
   C       -6.25308         0.17520        -6.10324
   C       -7.09773         0.39495        -5.02608
   C       -8.27686         1.09845        -5.39847
   C       -9.43336         1.03805        -4.61753
   N      -10.39954         0.86172        -4.01942
   C       -8.24853         1.51269        -6.73497
   S       -6.81101         0.90195        -7.56450
   C       -9.14772         2.30700        -7.46507
   C      -10.05298         3.21091        -6.95260
   C      -11.02262         3.93519        -7.68990
   C      -11.79840         4.76794        -6.93487
   C      -11.47443         4.75209        -5.56549
   S      -10.11989         3.68666        -5.27132
   C      -12.11509         5.34159        -4.48681
   C      -13.27265         6.14277        -4.46017
   C      -13.72482         6.42085        -3.19957
   C      -12.93842         5.86286        -2.17049
   S      -11.56419         5.01548        -2.86390
   C      -13.09412         5.82089        -0.79996
   C      -14.13484         6.29583        -0.01156
   S      -15.52075         7.15529        -0.61457
   C      -16.23035         7.32872         0.95678
   C      -15.44322         6.69833         1.92913
   C      -14.25312         6.12611         1.39122
   C      -13.36590         5.45897         2.23911
   C      -13.62724         5.33407         3.58880
   C      -12.69581         4.62037         4.45566
   C      -11.39860         4.45092         4.22239
   C      -14.84342         5.85798         4.11922
   C      -15.17850         5.68221         5.56756
   C      -15.71859         6.51816         3.29924
   C      -17.45416         8.06742         1.04863
   C      -17.92607         8.70367         2.12271
   H      -16.30354         4.13076        -0.82491
   H      -13.24498         2.28281        -4.26291
   H      -14.95459         3.11682         0.94703
   H      -11.88956         1.19430        -2.50420
   H      -10.55077         0.53313         3.60224
   H       -9.51633        -0.39184         0.99558
   H       -5.16666        -1.84336         2.47766
   H       -7.94460        -0.52758        -0.00867
   H       -5.10847        -1.64829         0.10345
   H       -9.08117         2.24135        -8.54315
   H      -11.13424         3.79757        -8.75080
   H      -12.59926         5.36991        -7.32482
   H      -13.75938         6.46973        -5.36126
   H      -14.60496         7.00495        -3.00020
   H      -12.30645         5.30701        -0.26447
   H      -12.47536         5.01047         1.82656
   H      -13.11592         4.20344         5.36015
   H      -10.90073         4.86773         3.36249
   H      -10.77846         3.89970         4.90826
   H      -14.37439         6.05091         6.20231
   H      -15.33593         4.62680         5.78915
   H      -16.09076         6.21910         5.81437
   H      -16.65248         6.87786         3.69914
   H      -18.00282         8.13638         0.11660
   H      -17.39479         8.74172         3.05636
   H      -18.85875         9.23800         2.07863
*
