# ORCA input file
# SCF done       -147.648424605234          0.000389442474
! CAM-B3LYP def2-SVP def2/J RIJCOSX Grid4 TightSCF
%maxcore 5000
%tddft
    Mode sTDDFT
    Ethresh 5.0
    maxcore 5000
end

%pal
  nprocs 6
  end
* xyz 0 1
   C       11.19233       -12.80963         1.12469
   C       10.53619       -12.05574         2.01438
   C       10.97703       -11.63151         3.31428
   C       10.09503       -10.85653         3.97965
   C        8.88536       -10.60992         3.26565
   S        8.91529       -11.41037         1.71024
   C        7.81656        -9.85527         3.68219
   C        7.65160        -9.13556         4.89113
   C        6.47155        -8.47167         4.99686
   C        5.61630        -8.62670         3.87314
   S        6.39365        -9.66112         2.66999
   C        4.37834        -8.09178         3.68576
   N        3.65621        -8.33530         2.55615
   C        2.43465        -7.86868         2.24720
   S        1.57799        -6.79910         3.31254
   C        0.25421        -6.76190         2.18023
   N       -0.84630        -5.98412         2.52002
   O       -1.78596        -5.94600         1.74142
   O       -0.78866        -5.38873         3.58866
   C        0.46821        -7.52513         1.06340
   C        1.71530        -8.17543         1.07081
   C        2.21869        -9.03846         0.05061
   C        1.56237        -9.39675        -1.07832
   C        2.10409       -10.25947        -2.05733
   S        3.69940       -10.96736        -1.95673
   C        1.48518       -10.68338        -3.22624
   N        0.26003       -10.41560        -3.75310
   C        0.09413       -11.02124        -4.86000
   S        1.42892       -12.02567        -5.43443
   C        2.28954       -11.55882        -4.00725
   C        3.53450       -11.83057        -3.47664
   C        4.54077       -12.65252        -4.02270
   C        5.76455       -12.86945        -3.47999
   C        6.74652       -13.70149        -4.06966
   C        8.03037       -13.94120        -3.58987
   C        8.48720       -13.41876        -2.37340
   N        8.83678       -13.01729        -1.35621
   C        8.77264       -14.81917        -4.42659
   C        8.01469       -15.24813        -5.50896
   S        6.42983       -14.57535        -5.55809
   S        8.80300       -16.38058        -6.55933
   C       10.19865       -16.27409        -5.53059
   C       10.06912       -15.40786        -4.45489
   C       11.27491       -15.34394        -3.69978
   C       11.53903       -14.43270        -2.66927
   N       11.81415       -13.67451        -1.85243
   C       12.25900       -16.18585        -4.18841
   S       11.73958       -17.04089        -5.62086
   C       13.60481       -16.32814        -3.68213
   C       14.66338       -16.42090        -4.56094
   C       15.99276       -16.37423        -4.11368
   C       16.27932       -16.22041        -2.78531
   C       15.24475       -16.23848        -1.82874
   C       15.42307       -16.28844        -0.43640
  Si       13.77580       -15.86927         0.18518
   C       12.93542       -16.57780        -1.25357
   C       13.86040       -16.34551        -2.27662
   H       12.18164       -13.17846         1.33934
   H       10.77133       -13.04885         0.16466
   H       11.94267       -11.92397         3.68787
   H       10.26088       -10.44707         4.96051
   H        8.41598        -9.12868         5.64722
   H        6.17784        -7.87403         5.84089
   H        3.92336        -7.45649         4.42943
   H        4.10231        -8.94488         1.87785
   H       -0.26079        -7.59784         0.27793
   H        3.21256        -9.44700         0.19089
   H        0.56651        -9.03875        -1.29323
   H       -0.79911       -10.95205        -5.44866
   H        4.28112       -13.13155        -4.96014
   H        6.03836       -12.38901        -2.54909
   H       14.46653       -16.47016        -5.62301
   H       16.78814       -16.42025        -4.84258
   H       17.30210       -16.13378        -2.44808
   H       16.40440       -16.11104        -0.02297
   H       11.87963       -16.63941        -1.46382
*
