# ORCA input file
# SCF done       -234.516982132542          0.000609872650
! CAM-B3LYP def2-SVP def2/J RIJCOSX Grid4 TightSCF
%maxcore 5000
%tddft
    Mode sTDDFT
    Ethresh 5.0
    maxcore 5000
end

%pal
  nprocs 6
  end
* xyz 0 1
   C       12.32718       -10.53572        -5.47783
   C       11.65773       -11.47604        -6.15704
   C       12.06478       -12.14706        -7.35951
   C       11.18315       -13.06164        -7.81636
   C       10.00872       -13.19624        -7.02185
   S       10.07439       -12.09161        -5.65769
   C        8.95531       -14.04725        -7.22888
   C        8.78870       -14.99554        -8.27307
   C        7.64238       -15.71072        -8.19043
   C        6.80548       -15.38821        -7.07825
   S        7.57184       -14.09835        -6.15141
   C        5.63344       -16.02313        -6.80084
   C        4.69499       -15.82719        -5.73626
   C        4.77673       -14.76467        -4.82054
   C        3.83042       -14.63392        -3.83504
   C        2.81282       -15.59378        -3.69463
   C        2.71494       -16.65013        -4.59119
   C        3.63893       -16.74735        -5.60750
   C        2.01325       -15.25448        -2.53991
   C        2.51983       -14.07140        -1.97443
   C        3.73010       -13.58294        -2.74680
   C        3.41203       -12.17897        -3.30062
   C        4.49064       -11.53354        -4.16139
   C        5.02754       -13.64832        -1.91376
   C        5.10390       -12.71170        -0.71506
   C        1.87955       -13.49806        -0.90091
   C        0.77694       -14.13788        -0.32034
   C        0.30963       -15.33289        -0.87349
   C        0.90682       -15.88473        -1.98893
   C        0.15689       -13.53829         0.85007
   C       -0.47108       -14.21406         1.81706
   C       -1.07645       -13.56225         2.97993
   C       -0.84286       -13.91417         4.31791
   N       -0.00113       -14.85437         4.87961
   C        0.72928       -15.87862         4.17356
   C        2.01456       -15.36248         3.53188
   C       -0.07978       -14.75378         6.25369
   C       -1.02677       -13.75904         6.59241
   C       -1.49094       -13.20250         5.35703
   C       -2.37328       -12.16504         5.08840
   C       -2.59066       -11.81556         3.77274
   C       -1.94357       -12.49717         2.75012
   C       -1.34727       -13.49008         7.91611
   C       -0.72608       -14.22603         8.90272
   C        0.22670       -15.18372         8.57352
   C        0.59176       -15.45495         7.26070
   C        1.70418       -16.39606         7.03183
   C        2.92621       -15.97330         6.70642
   C        4.07371       -16.83952         6.46040
   C        3.88331       -18.09246         5.86506
   C        4.93042       -18.93503         5.55427
   C        6.23866       -18.55934         5.82952
   C        6.45329       -17.33679         6.42215
   C        5.39223       -16.48178         6.74339
   N        5.90196       -15.33686         7.35330
   C        5.16350       -14.27344         7.98199
   C        7.26345       -15.38237         7.44867
   O        7.94795       -14.52010         7.95482
   C        7.73569       -16.70690         6.85940
   C        8.44745       -17.50605         7.97519
   C        7.60980       -17.38409         9.25126
   O        6.47100       -17.76228         9.41690
   N        8.36100       -16.72929        10.18081
   C        7.86368       -16.34799        11.47367
   C        9.62134       -16.41391         9.69046
   C       10.65158       -15.75200        10.31909
   C       11.84951       -15.54949         9.62036
   C       11.96751       -16.03776         8.31673
   C       10.92251       -16.69893         7.69117
   C        9.74544       -16.88665         8.38038
   C       12.91635       -14.83229        10.29624
   C       14.11272       -14.50773         9.79124
   C       15.10710       -13.74475        10.54344
   C       16.48058       -14.03309        10.60648
   N       17.23041       -15.05283        10.05186
   C       16.77837       -16.01477         9.07820
   C       16.01013       -17.17177         9.71477
   C       18.53198       -14.94549        10.49692
   C       18.64330       -13.79851        11.31658
   C       17.33166       -13.23079        11.40559
   C       16.85469       -12.13385        12.10896
   C       15.50882       -11.84499        12.03275
   C       14.66361       -12.64377        11.27549
   C       19.86089       -13.41045        11.85789
   C       20.97457       -14.17124        11.57120
   C       20.86465       -15.31135        10.78514
   C       19.65707       -15.74264        10.24356
   C       19.64039       -17.01415         9.51035
   C       20.53434       -17.34763         8.59035
   H       13.28964       -10.19538        -5.81693
   H       11.93341       -10.09778        -4.57922
   H       13.00476       -11.91086        -7.82628
   H       11.32891       -13.65457        -8.70217
   H        9.52563       -15.11888        -9.04650
   H        7.35263       -16.47442        -8.89134
   H        5.37727       -16.81941        -7.49117
   H        5.58271       -14.05589        -4.90036
   H        1.92843       -17.38385        -4.49291
   H        3.56925       -17.56141        -6.31544
   H        3.19492       -11.52531        -2.45387
   H        2.49359       -12.26034        -3.88896
   H        5.44170       -11.48243        -3.63867
   H        4.18884       -10.51833        -4.41223
   H        4.63003       -12.07956        -5.08965
   H        5.86654       -13.44295        -2.58051
   H        5.13859       -14.67812        -1.56248
   H        4.97272       -11.67484        -1.01272
   H        6.08210       -12.80637        -0.24764
   H        4.35276       -12.96568         0.02768
   H        2.21434       -12.56016        -0.48272
   H       -0.55717       -15.81149        -0.44223
   H        0.51509       -16.79033        -2.42831
   H        0.29223       -12.46893         0.96006
   H       -0.55595       -15.28887         1.74565
   H        0.08028       -16.32018         3.41384
   H        0.97329       -16.66123         4.89513
   H        2.50659       -16.16933         2.99498
   H        2.69357       -14.99207         4.29422
   H        1.79883       -14.55897         2.83298
   H       -2.86367       -11.64341         5.89590
   H       -3.26477       -11.00843         3.52779
   H       -2.13332       -12.21278         1.72516
   H       -2.07114       -12.72749         8.15922
   H       -0.96315       -14.05212         9.94162
   H        0.72727       -15.72530         9.36370
   H        1.51637       -17.44126         7.24608
   H        3.08075       -14.91103         6.58219
   H        2.87615       -18.39536         5.62104
   H        4.73101       -19.88878         5.08979
   H        7.06479       -19.21012         5.58543
   H        4.76127       -13.57531         7.24465
   H        5.86620       -13.73358         8.61867
   H        4.35469       -14.68078         8.58847
   H        8.43596       -16.54277         6.03611
   H        8.53867       -18.54992         7.66464
   H        6.84304       -16.72086        11.55413
   H        7.86481       -15.26065        11.57470
   H        8.47562       -16.78618        12.26480
   H       10.54404       -15.37892        11.32617
   H       12.88766       -15.89503         7.77277
   H       11.03422       -17.05763         6.67826
   H       12.69881       -14.55408        11.32029
   H       14.35769       -14.78179         8.77729
   H       17.65890       -16.39164         8.55266
   H       16.15514       -15.50819         8.33811
   H       16.62761       -17.67486        10.45551
   H       15.72151       -17.89088         8.95226
   H       15.11200       -16.80782        10.20832
   H       17.52593       -11.53218        12.70216
   H       15.10233       -10.99735        12.56393
   H       13.61492       -12.39130        11.22221
   H       19.92698       -12.53338        12.48322
   H       21.93919       -13.89473        11.96994
   H       21.74324       -15.91434        10.60823
   H       18.87912       -17.72730         9.80171
   H       21.30318       -16.66188         8.27487
   H       20.52341       -18.31064         8.10849
*
