# ORCA input file
# SCF done       -149.232365246510          0.000585433142
! CAM-B3LYP def2-SVP def2/J RIJCOSX Grid4 TightSCF
%maxcore 5000
%tddft
    Mode sTDDFT
    Ethresh 5.0
    maxcore 5000
end

%pal
  nprocs 6
  end
* xyz 0 1
   C       -0.61871        -1.47434         4.62479
   C       -0.19072        -1.24648         3.38516
   C       -0.39453         0.09267         2.87693
   C       -0.99812         0.94997         3.72324
   S       -1.33811         0.04745         5.26246
   O       -2.75092        -0.09840         5.47190
   O       -0.55532         0.57259         6.34550
   C       -1.35898         2.30868         3.59813
   C       -1.17645         3.16062         2.53051
   C       -1.66575         4.45129         2.88430
   C       -2.20826         4.32877         4.25180
   C       -2.02194         3.04895         4.66509
   C       -2.89608         5.31700         4.97008
   N       -3.50225         6.08706         5.56760
   C       -1.61620         5.59855         2.12176
   C       -1.92466         6.92196         2.52930
   C       -1.74713         7.78472         1.45822
   C       -1.31910         6.98787         0.31719
   C       -1.21276         5.69047         0.70756
   C       -0.81558         4.63760        -0.12434
   N       -0.48308         3.79705        -0.83331
   C       -1.92831         9.18591         1.54059
   N       -2.01358        10.07694         0.50176
   C       -2.00353         9.80012        -0.90965
   C       -2.20608        11.39854         0.95389
   O       -2.32831        12.34645         0.20815
   C       -2.21487        11.28677         2.39620
   C       -2.05262         9.92934         2.72627
   C       -2.01081         9.82001         4.17424
   O       -1.84356         8.88441         4.92121
   N       -2.19259        11.14462         4.62048
   C       -2.23841        11.45645         6.02342
   C       -2.30810        12.03334         3.58338
   C       -2.47591        13.41971         3.76058
   C       -2.54077        14.29771         2.71464
   C       -2.68584        15.69477         2.84690
   C       -2.67768        16.60228         1.80140
   C       -2.82548        17.91839         2.31590
   C       -2.94708        17.76921         3.78076
   C       -2.85665        16.44901         4.08286
   C       -3.12416        18.78953         4.72246
   N       -3.27275        19.59579         5.52727
   C       -2.83263        19.10674         1.61871
   C       -2.96878        20.42096         2.15574
   C       -2.90102        21.33307         1.12584
   C       -2.71884        20.60167        -0.12070
   C       -2.67915        19.27346         0.15997
   C       -2.51344        18.25282        -0.78438
   N       -2.37673        17.43350        -1.57709
   C       -2.97752        22.74223         1.17796
   C       -3.15079        23.60245         2.19976
   C       -3.16831        25.00396         1.83915
   C       -3.01115        25.27871         0.54643
   S       -2.82361        23.72474        -0.34183
   O       -1.50478        23.60337        -0.89658
   O       -3.93725        23.49245        -1.21795
   H       -0.57568        -2.37623         5.19892
   H        0.28586        -1.98555         2.75948
   H       -0.07267         0.35160         1.88081
   H       -0.71063         2.91651         1.59666
   H       -2.30831         2.61413         5.60389
   H       -2.22043         7.20323         3.52074
   H       -1.08692         7.35491        -0.66307
   H       -2.71451         9.01140        -1.15712
   H       -1.00386         9.52548        -1.25184
   H       -2.29776        10.72341        -1.41101
   H       -2.11598        10.51474         6.55909
   H       -3.19890        11.89862         6.29406
   H       -1.42992        12.13509         6.30163
   H       -2.54023        13.78150         4.77664
   H       -2.46431        13.91920         1.70338
   H       -2.56745        16.35335         0.76419
   H       -2.91049        16.02940         5.07005
   H       -3.09958        20.64833         3.19470
   H       -2.63370        21.07146        -1.08225
   H       -3.27251        23.30404         3.22892
   H       -3.30366        25.74871         2.60852
   H       -2.99019        26.22918         0.05551
*
