# ORCA input file
# SCF done       -215.386056074701          0.000636586236
! CAM-B3LYP def2-SVP def2/J RIJCOSX Grid4 TightSCF
%maxcore 5000
%tddft
    Mode sTDDFT
    Ethresh 5.0
    maxcore 5000
end

%pal
  nprocs 6
  end
* xyz 0 1
   N       -1.23920        -3.91042        -7.82531
   C       -0.74462        -5.10026        -7.74376
   C       -1.34766        -6.30284        -8.33229
   C        0.50947        -5.11091        -6.97887
   C        0.72804        -3.83436        -6.56321
   C       -0.40943        -3.00775        -7.13737
   O       -0.56812        -1.82547        -7.04503
   C        1.92873        -3.62815        -5.81486
   C        2.43064        -2.31292        -5.36367
   N        2.52530        -4.77645        -5.68703
   C        1.47099        -6.11928        -6.46036
   O        1.22971        -6.93531        -5.60169
   C        3.66287        -5.29829        -5.23756
   C        4.16729        -6.46739        -5.93106
   N        3.62945        -7.00786        -7.00749
   O        4.07121        -7.92640        -7.65642
   O        2.45370        -6.43837        -7.47798
   C        5.39090        -6.84777        -5.29423
   C        5.62286        -5.97476        -4.27812
   C        4.56370        -4.99994        -4.20012
   C        4.38028        -4.04047        -3.17024
   C        3.16573        -3.68349        -2.60090
   C        3.41392        -2.83742        -1.51114
   C        4.78421        -2.63850        -1.37886
   N        5.29301        -1.82330        -0.35573
   O        4.48921        -1.16653         0.28199
   O        6.49530        -1.81485        -0.12630
   C        5.45192        -3.35641        -2.43770
   C        6.73937        -3.37527        -2.92983
   C        7.91283        -2.89496        -2.34170
   C        9.13535        -3.01995        -2.96347
   N       10.33983        -2.67978        -2.38655
   C       10.52409        -2.16093        -1.04769
   C       10.47820        -3.26803        -0.00013
   C       11.42343        -2.96088        -3.20849
   O       12.58280        -2.76462        -2.90658
   C       10.82459        -3.49991        -4.43284
   C        9.45504        -3.51832        -4.27004
   C        8.85261        -4.00884        -5.51226
   O        7.69266        -4.19674        -5.81689
   N        9.93510        -4.25512        -6.34950
   C        9.75387        -4.73292        -7.70359
   C        9.96614        -3.62658        -8.73152
   C       11.14330        -3.98405        -5.74531
   C       12.37371        -4.21610        -6.32121
   C       13.55267        -4.05312        -5.58908
   C       14.85597        -4.32345        -5.95178
   C       15.53913        -4.48748        -7.20675
   N       15.04278        -4.57931        -8.51642
   O       15.85620        -4.55070        -9.42284
   O       13.83905        -4.70149        -8.70222
   C       16.91183        -4.48304        -6.96041
   C       17.14369        -4.36419        -5.58703
   C       15.91940        -4.28299        -4.93240
   C       15.65245        -4.31607        -3.53799
   C       14.59651        -5.00278        -2.94553
   C       14.67929        -4.85254        -1.56319
   C       15.78426        -4.05685        -1.24365
   N       16.05081        -3.75689         0.09860
   O       15.26121        -4.17436         0.92788
   O       17.04714        -3.10974         0.40447
   C       16.43963        -3.68514        -2.46758
   C       17.51923        -2.87168        -2.78585
   C       18.35612        -2.21382        -1.90409
   N       19.49062        -1.58889        -2.23990
   C       20.25545        -0.86351        -1.37629
   C       19.89605        -0.61993         0.03583
   C       21.36811        -0.41777        -2.07427
   C       21.33933        -0.86383        -3.40093
   C       20.17979        -1.64388        -3.60660
   O       19.72235        -2.28180        -4.51576
   C       22.54147        -0.36085        -4.02679
   C       22.93228        -0.59448        -5.42903
   N       23.25751         0.33528        -3.19280
   C       22.64484         0.38117        -1.94145
   O       23.05333         0.94010        -0.95964
   H       -2.28891        -6.06079        -8.81595
   H       -1.50035        -7.04675        -7.54966
   H       -0.65447        -6.73860        -9.05264
   H        1.89355        -1.51577        -5.87065
   H        3.50151        -2.23204        -5.54886
   H        2.28382        -2.20934        -4.28458
   H        5.99059        -7.68506        -5.59324
   H        6.43371        -6.03252        -3.57747
   H        2.20688        -4.08527        -2.87106
   H        2.67561        -2.41320        -0.85591
   H        6.84647        -3.84850        -3.89769
   H        7.86575        -2.45888        -1.35562
   H        9.75886        -1.40864        -0.84596
   H       11.50732        -1.68370        -1.03758
   H        9.51057        -3.76341        -0.00028
   H       10.64792        -2.84174         0.98373
   H       11.25415        -4.00422        -0.19551
   H        8.72605        -5.10129        -7.75868
   H       10.44032        -5.56258        -7.88847
   H        9.29613        -2.79314        -8.53352
   H        9.75587        -4.01292        -9.72428
   H       10.99165        -3.26765        -8.71376
   H       12.42452        -4.58428        -7.33385
   H       13.43657        -3.69601        -4.57397
   H       17.66245        -4.57395        -7.72343
   H       18.11473        -4.41551        -5.13310
   H       13.88401        -5.62182        -3.45634
   H       14.01696        -5.28012        -0.83376
   H       17.71926        -2.76431        -3.84166
   H       18.11105        -2.19988        -0.84871
   H       18.96138        -0.06230         0.10776
   H       20.68855        -0.04853         0.51104
   H       19.75729        -1.55956         0.57264
   H       23.87623        -0.10187        -5.64001
   H       22.15648        -0.21775        -6.09488
   H       23.02169        -1.66529        -5.61022
*
