# ORCA input file
# SCF done       -236.425975289864          0.000959656733
! CAM-B3LYP def2-SVP def2/J RIJCOSX Grid4 TightSCF
%maxcore 5000
%tddft
    Mode sTDDFT
    Ethresh 5.0
    maxcore 5000
end

%pal
  nprocs 6
  end
* xyz 0 1
   C       -9.21035        -0.20028        -2.79096
   C       -8.57397        -0.17519        -4.00024
   F       -8.32147         0.99191        -4.60414
   C       -8.17571        -1.37414        -4.62629
   F       -7.55461        -1.31948        -5.81108
   C       -8.41867        -2.58148        -4.03362
   C       -9.07214        -2.64062        -2.78712
   C       -9.47535        -1.42893        -2.15333
   C      -10.13148        -1.46396        -0.90211
   C      -10.37454        -2.67249        -0.30458
   C       -9.97403        -3.87968        -0.94587
   C       -9.33885        -3.87534        -2.15528
   C      -10.36997        -5.03445        -0.11996
   O      -10.21033        -6.20845        -0.38223
   C      -11.08289        -4.45526         1.04786
   C      -11.00476        -3.00877         0.96528
   C      -11.35580        -2.13527         1.95747
   C      -11.79712        -2.54500         3.23469
   N      -12.10024        -2.83322         4.30320
   C      -11.25038        -0.73262         1.84873
   N      -11.18898         0.41223         1.80386
   C      -11.85455        -5.18607         1.89457
   C      -11.81231        -6.60740         1.98579
   C      -12.89227        -7.47610         1.93425
   N      -14.23689        -7.09410         1.78175
   O      -14.47235        -5.90994         1.59626
   O      -15.08364        -7.96496         1.84952
   C      -12.42449        -8.83085         1.98021
   C      -11.06662        -8.80769         2.02881
   C      -10.62015        -7.43851         2.05539
   C       -9.33861        -6.98655         2.32611
   C       -8.98658        -5.82164         3.05205
   C       -7.64863        -5.87233         3.35473
   C       -7.08069        -7.03647         2.77168
   N       -5.72717        -7.36976         2.87525
   O       -5.34620        -8.43583         2.40224
   O       -4.99189        -6.58508         3.45073
   C       -8.08700        -7.72826         2.06950
   C       -7.90252        -8.77524         1.17452
   C       -8.80392        -9.15059         0.19314
   C       -8.70721       -10.26765        -0.62953
   S       -9.75019       -10.34018        -2.02275
   C       -9.12534       -11.86606        -2.53903
   C       -8.09058       -12.30411        -1.67598
   C       -7.88348       -11.42910        -0.56972
   C       -6.95925       -11.77860         0.42120
   C       -6.17637       -12.90596         0.28180
   C       -5.18066       -13.28164         1.32836
   C       -6.31471       -13.70235        -0.86883
   C       -7.25224       -13.42120        -1.82738
   C       -9.70467       -12.46068        -3.67976
   C       -9.65860       -13.78289        -4.00725
   C      -10.21249       -14.37297        -5.16792
   S      -10.23366       -16.10399        -5.28367
   C      -10.99753       -16.08155        -6.84336
   C      -11.18676       -14.77221        -7.26413
   C      -10.75915       -13.80644        -6.32523
   C      -10.85653       -12.41646        -6.52678
   N      -10.94132       -11.28194        -6.67023
   C      -11.70420       -14.40136        -8.61994
   F      -11.20502       -15.20122        -9.58308
   F      -13.04493       -14.49533        -8.71580
   F      -11.38742       -13.15741        -8.98131
   C      -11.32843       -17.34112        -7.42019
   C      -12.28141       -17.58402        -8.35004
   C      -12.56536       -18.89320        -8.81866
   C      -13.66670       -19.27241        -9.51767
   C      -13.66896       -20.55559       -10.27956
   O      -12.88483       -21.46594       -10.15953
   C      -14.78796       -20.43031       -11.23304
   C      -15.14918       -21.27658       -12.24197
   C      -16.25365       -20.94255       -13.05651
   C      -16.96176       -19.72951       -12.81183
   C      -18.05989       -19.40040       -13.63186
   C      -18.43825       -20.23657       -14.64465
   C      -17.73707       -21.43611       -14.88538
   C      -16.66751       -21.78295       -14.10844
   F      -18.12919       -22.23458       -15.88544
   F      -19.48204       -19.92392       -15.42105
   C      -16.56765       -18.87435       -11.75734
   C      -15.49959       -19.22260       -10.97379
   C      -14.89969       -18.56954        -9.81276
   C      -15.50340       -17.62609        -9.02487
   C      -15.02378       -17.23280        -7.75637
   N      -14.69834       -16.92996        -6.69830
   C      -16.74462       -17.02993        -9.33712
   N      -17.74268       -16.51140        -9.56238
   H       -9.50767         0.72620        -2.32506
   H       -8.10845        -3.48939        -4.52667
   H      -10.43331        -0.53332        -0.44891
   H       -9.04459        -4.80186        -2.62453
   H      -12.60876        -4.68958         2.49496
   H      -13.07268        -9.68585         1.97256
   H      -10.41860        -9.65490         2.14492
   H       -9.68432        -5.09224         3.41729
   H       -7.09227        -5.16794         3.94478
   H       -6.92438        -9.23550         1.19725
   H       -9.62139        -8.47224        -0.02054
   H       -6.85010       -11.17634         1.30668
   H       -5.53225       -14.15358         1.88041
   H       -5.02413       -12.46770         2.03056
   H       -4.22807       -13.54329         0.87202
   H       -5.66633       -14.55713        -0.99081
   H       -7.31865       -14.03575        -2.70945
   H      -10.28335       -11.79233        -4.30186
   H       -9.21522       -14.48630        -3.31732
   H      -10.81757       -18.18724        -6.97688
   H      -12.87075       -16.78098        -8.76066
   H      -11.81289       -19.65942        -8.66670
   H      -14.59928       -22.18895       -12.41565
   H      -18.60965       -18.48821       -13.46008
   H      -16.14133       -22.70387       -14.30524
   H      -17.11473       -17.95828       -11.60127
*
