# ORCA input file
# SCF done       -237.553406184613          0.000402625784
! CAM-B3LYP def2-SVP def2/J RIJCOSX Grid4 TightSCF
%maxcore 5000
%tddft
    Mode sTDDFT
    Ethresh 5.0
    maxcore 5000
end

%pal
  nprocs 6
  end
* xyz 0 1
   C       -9.70313         3.07326        -2.95845
   C      -10.43398         3.19968        -4.10623
   F      -10.85235         4.40702        -4.50828
   C      -10.75672         2.06646        -4.87974
   F      -11.47616         2.22119        -5.99911
   C      -10.34387         0.82164        -4.49454
   C       -9.59041         0.65835        -3.31608
   C       -9.26241         1.80358        -2.53373
   C       -8.50235         1.66548        -1.34996
   C       -8.07933         0.42073        -0.96338
   C       -8.41616        -0.71736        -1.74863
   C       -9.15382        -0.61677        -2.89220
   C       -7.85778        -1.92722        -1.11836
   O       -8.10199        -3.07861        -1.40530
   C       -7.06931        -1.44365         0.04443
   C       -7.27399        -0.01508         0.17466
   C       -6.76296         0.80384         1.14847
   C       -6.98555         2.19577         1.20993
   N       -7.13349         3.32838         1.32267
   C       -5.95256         0.38198         2.22289
   N       -5.28524         0.10973         3.11696
   C       -6.37427        -2.25666         0.89631
   C       -5.96085        -3.57152         0.60234
   S       -5.55800        -4.68618         1.89153
   C       -5.07231        -5.97437         0.82167
   C       -5.20672        -5.53878        -0.50149
   C       -5.69716        -4.20678        -0.60315
   O       -5.77303        -3.82190        -1.87993
   C       -5.39865        -4.90610        -2.60939
   N       -5.42783        -4.78013        -4.02192
   O       -5.18740        -5.78326        -4.66223
   O       -5.69149        -3.69160        -4.48370
   C       -5.05300        -5.98455        -1.83911
   C       -4.53983        -7.20742         1.27003
   N       -4.80210        -7.80388         2.47945
   C       -5.79715        -7.42675         3.45458
   C       -7.21594        -7.63706         2.93570
   C       -4.06335        -8.99597         2.64876
   O       -4.13871        -9.68766         3.63912
   C       -3.27577        -9.09758         1.44191
   C       -3.59619        -7.99683         0.60952
   C       -2.68298        -8.01606        -0.51881
   O       -2.53709        -7.27261        -1.46541
   N       -1.88043        -9.14801        -0.29539
   C       -0.88679        -9.56073        -1.25751
   C       -1.35523       -10.76094        -2.07571
   C       -2.21810        -9.80130         0.86524
   C       -1.52610       -10.93342         1.35649
   C       -1.95788       -11.67630         2.40824
   C       -1.21506       -12.75062         2.95394
   S        0.46839       -12.98457         2.56909
   C       -1.63670       -13.67821         3.90021
   C       -3.00061       -13.69867         4.48080
   O       -3.95273       -13.12102         3.99789
   C       -3.04369       -14.48736         5.70505
   C       -3.99182       -14.53548         6.70184
   N       -3.59941       -15.44071         7.63129
   C       -4.23879       -15.66310         8.90409
   C       -3.63295       -14.75359         9.97150
   C       -2.42990       -16.00073         7.25359
   C       -2.03583       -15.43089         6.06049
   C       -0.84627       -15.66481         5.26943
   O       -0.11760       -16.63595         5.38114
   C       -0.60456       -14.55085         4.32133
   C        0.61788       -14.26867         3.72728
   C        1.91511       -14.81072         3.96081
   C        2.44331       -15.29129         5.11219
   C        3.67956       -16.12534         5.04755
   O        4.46689       -16.18181         4.13472
   C        3.68288       -16.89418         6.30799
   C        4.52612       -17.89457         6.69780
   C        4.32231       -18.51607         7.95015
   C        3.23782       -18.09300         8.77337
   C        3.03685       -18.72335        10.01822
   C        3.87448       -19.72184        10.42873
   C        4.94871       -20.13667         9.61559
   C        5.16855       -19.54747         8.40202
   F        5.75427       -21.11653        10.04448
   F        3.68193       -20.31695        11.61289
   C        2.38461       -17.05103         8.34635
   C        2.60750       -16.45501         7.13341
   C        1.93212       -15.34820         6.46982
   C        1.11618       -14.43120         7.07583
   C        0.72597       -13.22185         6.46521
   N        0.43541       -12.20118         6.02808
   C        0.56229       -14.59005         8.36028
   N        0.02273       -14.69935         9.36832
   H       -9.46343         3.95107        -2.37886
   H      -10.59724        -0.03560        -5.09826
   H       -8.27256         2.55137        -0.78044
   H       -9.39030        -1.49630        -3.47099
   H       -6.09620        -1.89071         1.87593
   H       -4.71129        -6.93051        -2.20038
   H       -5.64433        -6.38993         3.76557
   H       -5.61755        -8.08001         4.31377
   H       -7.41319        -7.01779         2.06376
   H       -7.92972        -7.37828         3.71217
   H       -7.36176        -8.67927         2.66236
   H        0.05212        -9.78355        -0.74281
   H       -0.73125        -8.70164        -1.91585
   H       -1.55968       -11.61481        -1.43352
   H       -0.58813       -11.03771        -2.79319
   H       -2.26295       -10.51075        -2.61918
   H       -0.60268       -11.20879         0.86233
   H       -2.90983       -11.46698         2.88180
   H       -4.89843       -13.97245         6.80080
   H       -4.10350       -16.71130         9.18260
   H       -5.30758       -15.46319         8.79661
   H       -2.56063       -14.91917        10.04770
   H       -4.09017       -14.95691        10.93536
   H       -3.80041       -13.70952         9.71845
   H       -1.93461       -16.74333         7.84719
   H        2.57422       -14.85211         3.09832
   H        5.33831       -18.20795         6.05974
   H        2.22209       -18.41612        10.65505
   H        5.99454       -19.87700         7.79148
   H        1.56706       -16.75401         8.98374
*
