# ORCA input file
# SCF done       -223.620344137467          0.000783487240
! CAM-B3LYP def2-SVP def2/J RIJCOSX Grid4 TightSCF
%maxcore 5000
%tddft
    Mode sTDDFT
    Ethresh 5.0
    maxcore 5000
end

%pal
  nprocs 6
  end
* xyz 0 1
   C        0.91867         3.15846         4.42766
   C        0.91535         1.92057         4.98921
   N        1.74076         1.48450         6.05495
   O        1.61948         0.33303         6.42405
   O        2.51312         2.29277         6.53246
   C       -0.06245         1.07876         4.31383
   C       -0.67883         1.82877         3.37955
   C       -0.10997         3.16959         3.40616
   C       -0.39989         4.24886         2.60752
   C        0.48984         5.35054         2.37614
   C        0.05866         6.04061         1.28573
   C       -1.16959         5.46432         0.82513
   N       -1.90571         6.01045        -0.24393
   O       -2.98724         5.51820        -0.52162
   O       -1.40945         6.95301        -0.83409
   C       -1.52196         4.39629         1.65364
   C       -2.74508         3.70828         1.66023
   C       -3.29546         3.10824         2.76679
   C       -4.51940         2.41899         2.76656
   C       -5.33334         2.06973         1.69089
   C       -6.48095         1.41205         2.17793
   C       -6.33397         1.33551         3.64709
   C       -5.15827         1.92444         3.97997
   C       -7.18783         0.67416         4.54023
   N       -7.83344         0.10933         5.30335
   C       -7.56180         0.93326         1.45317
   C       -8.80298         0.50567         1.96411
   C       -9.61399         0.07964         0.91400
   C       -8.84873         0.23259        -0.31527
   C       -7.63751         0.76801        -0.00797
   C       -6.61642         1.04011        -0.92662
   N       -5.78570         1.23919        -1.69371
   C      -10.93181        -0.38334         1.10990
   N      -11.72850        -1.08184         0.24183
   C      -11.39428        -1.60353        -1.06465
   C      -10.35411        -2.71621        -0.98992
   C      -12.97661        -1.40446         0.81598
   O      -13.83349        -2.03638         0.24071
   C      -12.93130        -0.80935         2.13824
   C      -11.68145        -0.19844         2.29312
   C      -11.66947         0.47963         3.58212
   O      -10.84568         1.17308         4.13229
   N      -12.93336         0.19445         4.13050
   C      -13.28477         0.64189         5.45796
   C      -13.13504        -0.47512         6.48690
   C      -13.70101        -0.57549         3.29751
   C      -15.00234        -0.99945         3.60738
   C      -15.74037        -1.80335         2.78081
   C      -17.05502        -2.23813         3.06030
   C      -17.71617        -3.09199         2.12914
   C      -19.07578        -3.51836         2.30143
   N      -19.66990        -4.25873         1.35113
   C      -18.98037        -4.63903         0.30713
   C      -17.59774        -4.28098         0.17380
   N      -17.02255        -3.51412         1.06394
   C      -16.84204        -4.75223        -0.93028
   N      -16.26999        -5.15292        -1.83729
   C      -19.62867        -5.43726        -0.67001
   N      -20.14153        -6.09793        -1.45167
   C      -19.83364        -3.13308         3.43546
   C      -19.16050        -2.35428         4.39288
   C      -17.80341        -1.89841         4.21455
   N      -17.40129        -1.16640         5.25581
   S      -18.59068        -1.07408         6.33195
   N      -19.66955        -1.95993         5.56324
   C      -21.23405        -3.41280         3.53982
   C      -22.22887        -2.50658         3.84549
   N      -22.10824        -1.12419         4.11051
   O      -21.07478        -0.55541         3.80033
   O      -23.06700        -0.57391         4.61558
   C      -23.51811        -3.13369         3.67331
   C      -23.33171        -4.40214         3.24205
   C      -21.91636        -4.68012         3.20935
   C      -21.29528        -5.89215         3.05913
   C      -19.89694        -6.17542         3.33230
   C      -19.58146        -7.37964         2.81994
   C      -20.77924        -7.93630         2.21459
   N      -20.80756        -9.20352         1.59276
   O      -19.75236        -9.80286         1.50761
   O      -21.87794        -9.62073         1.19128
   C      -21.84773        -7.10270         2.42226
   C      -23.20772        -7.38361         2.00645
   C      -24.24145        -7.44853         2.83817
   H        1.52108         3.99180         4.73003
   H       -0.21538         0.04313         4.54767
   H       -1.40879         1.49354         2.66950
   H        1.39886         5.52452         2.91709
   H        0.52527         6.88760         0.81865
   H       -3.32961         3.76356         0.75101
   H       -2.79809         3.20907         3.72339
   H       -5.14832         2.29210         0.65828
   H       -4.74490         2.01881         4.96712
   H       -9.08225         0.53396         2.99809
   H       -9.18193         0.00169        -1.30789
   H      -11.06455        -0.78961        -1.71427
   H      -12.32980        -2.00387        -1.46677
   H       -9.42466        -2.36265        -0.54874
   H      -10.14595        -3.08673        -1.98951
   H      -10.73232        -3.53930        -0.38859
   H      -14.30518         1.03337         5.45133
   H      -12.59274         1.45441         5.69518
   H      -13.79233        -1.31010         6.25519
   H      -13.38379        -0.09730         7.47429
   H      -12.10791        -0.83109         6.50141
   H      -15.43885        -0.67779         4.54139
   H      -15.32533        -2.14640         1.84157
   H      -24.44646        -2.62139         3.84157
   H      -24.09526        -5.11705         3.01298
   H      -19.25308        -5.53286         3.90025
   H      -18.64101        -7.89643         2.84584
   H      -23.32869        -7.65303         0.96450
   H      -24.13250        -7.28235         3.89825
   H      -25.22296        -7.71746         2.48931
*
