# ORCA input file
# SCF done       -195.824311902518          0.000441492125
! CAM-B3LYP def2-SVP def2/J RIJCOSX Grid4 TightSCF
%maxcore 5000
%tddft
    Mode sTDDFT
    Ethresh 5.0
    maxcore 5000
end

%pal
  nprocs 6
  end
* xyz 0 1
   C       -5.49201         2.64380        -3.13564
   S       -6.15259         2.34238        -4.68930
   C       -5.89197         0.62301        -4.54511
   C       -5.36069         0.33100        -3.30004
   C       -5.13563         1.48578        -2.50506
   C       -4.60966         1.11149        -1.18666
   O       -4.32641         1.83067        -0.26497
   C       -4.49671        -0.41009        -1.21008
   C       -5.12748        -0.87620        -2.51291
   O       -5.43343        -2.01693        -2.77844
   C       -6.15011        -0.31096        -5.59026
   C       -7.23041        -0.40073        -6.45722
   N       -8.25380         0.53355        -6.64289
   O       -8.07432         1.67511        -6.23041
   O       -9.26617         0.16903        -7.21160
   C       -7.18625        -1.66502        -7.14274
   C       -6.09920        -2.35260        -6.71325
   C       -5.37661        -1.53665        -5.77091
   C       -4.07843        -1.74347        -5.33848
   C       -3.09616        -0.74162        -5.08925
   C       -1.87028        -1.33800        -5.00274
   C       -2.03055        -2.75286        -5.11874
   N       -0.97116        -3.66037        -4.95337
   O        0.15332        -3.19413        -4.86893
   O       -1.22510        -4.85204        -4.89598
   C       -3.38347        -3.04694        -5.29508
   C       -4.00539        -4.30469        -5.27178
   C       -5.28564        -4.47732        -4.80756
   C       -5.93986        -5.71747        -4.79034
   N       -7.12685        -5.94831        -4.13997
   C       -7.90250        -4.96714        -3.41702
   C       -8.74604        -4.11372        -4.36095
   C       -7.55598        -7.28223        -4.26809
   O       -8.56063        -7.72486        -3.75984
   C       -6.53087        -7.89835        -5.09487
   C       -5.56299        -6.92972        -5.39523
   C       -4.57129        -7.54927        -6.25023
   O       -3.59167        -7.11016        -6.80752
   N       -4.99404        -8.89779        -6.36404
   C       -4.28147        -9.78515        -7.25402
   C       -5.08439       -10.09539        -8.51386
   C       -6.16943        -9.11469        -5.69390
   C       -6.95602       -10.28637        -5.57804
   C       -6.61510       -11.56779        -5.86363
   C       -7.49530       -12.67931        -5.73085
   S       -6.78277       -14.22721        -5.36252
   C       -8.87867       -12.77510        -5.82630
   C       -9.76212       -11.73865        -6.41684
   O       -9.35298       -10.70631        -6.91633
   C      -11.15840       -12.13307        -6.41459
   C      -12.25754       -11.42724        -6.85598
   N      -13.36570       -12.17214        -6.63874
   C      -14.70133       -11.80602        -7.03883
   C      -14.98137       -12.24912        -8.47329
   C      -13.01646       -13.35013        -6.07132
   C      -11.64826       -13.37222        -5.90901
   C      -10.79605       -14.40083        -5.34890
   O      -11.19526       -15.37898        -4.74577
   C       -9.35599       -14.07967        -5.52089
   C       -8.33816       -14.98189        -5.27732
   C       -8.45855       -16.39292        -5.07398
   S       -7.44408       -17.26476        -3.95072
   C       -8.19693       -18.76563        -4.31745
   C       -9.17199       -18.60862        -5.25506
   C       -9.31892       -17.26436        -5.69438
   C      -10.31920       -17.17708        -6.76275
   O      -10.58037       -16.23394        -7.46698
   C      -10.94407       -18.56242        -6.85100
   C      -10.11745       -19.48481        -5.96332
   O      -10.22535       -20.67976        -5.88137
   H       -5.43340         3.64554        -2.75783
   H       -4.96849        -0.86748        -0.33898
   H       -3.44344        -0.70185        -1.18790
   H       -7.90892        -1.96252        -7.87807
   H       -5.75079        -3.29423        -7.08940
   H       -3.28106         0.31495        -5.09337
   H       -0.92000        -0.85718        -4.86377
   H       -3.40367        -5.16422        -5.54597
   H       -5.78544        -3.63386        -4.35486
   H       -7.23301        -4.34010        -2.82341
   H       -8.55680        -5.52948        -2.74549
   H       -8.11767        -3.57283        -5.06518
   H       -9.32303        -3.39466        -3.78675
   H       -9.43346        -4.74364        -4.92020
   H       -3.99823       -10.69828        -6.72501
   H       -3.36484        -9.25115        -7.52342
   H       -6.03981       -10.55479        -8.27201
   H       -4.51947       -10.77140        -9.14949
   H       -5.27442        -9.17854        -9.06625
   H       -7.93940       -10.08513        -5.17618
   H       -5.60058       -11.82578        -6.13058
   H      -12.30243       -10.44830        -7.29041
   H      -14.80418       -10.72118        -6.95497
   H      -15.41057       -12.27886        -6.35501
   H      -14.27985       -11.77948        -9.15840
   H      -15.99059       -11.96671        -8.75867
   H      -14.88093       -13.32799        -8.56298
   H      -13.74023       -14.10022        -5.82176
   H       -7.87987       -19.66058        -3.81979
   H      -11.00570       -18.92425        -7.87857
   H      -11.96699       -18.51519        -6.46798
*
