# ORCA input file
# SCF done       -192.396439808552          0.000535374612
! CAM-B3LYP def2-SVP def2/J RIJCOSX Grid4 TightSCF
%maxcore 5000
%tddft
    Mode sTDDFT
    Ethresh 5.0
    maxcore 5000
end

%pal
  nprocs 6
  end
* xyz 0 1
   C       -0.74610         0.19496        -6.82170
   N       -0.04911         0.82669        -7.81535
   C        1.22579         0.95222        -7.36037
   N        2.27561         1.51245        -7.93633
   C        3.34354         1.46073        -7.16535
   N        4.59643         1.90219        -7.38691
   C        5.33057         1.61185        -6.26153
   N        4.61006         0.99361        -5.33887
   C        3.36632         0.87809        -5.83317
   N        2.29568         0.34312        -5.27855
   C        1.22172         0.36794        -6.04476
   N       -0.03577        -0.08260        -5.77557
   C        6.71618         1.90505        -6.10656
   C        7.70998         2.20302        -7.06270
   N        7.63091         2.49935        -8.42278
   O        6.53358         2.69302        -8.95502
   O        8.67482         2.57732        -9.04697
   C        8.98596         2.17050        -6.41748
   C        8.80811         1.83644        -5.11058
   C        7.40817         1.68660        -4.85894
   C        6.84638         1.54115        -3.58225
   C        5.69991         2.18648        -3.08512
   C        5.64838         2.03433        -1.71423
   C        6.73970         1.24426        -1.29522
   N        6.97338         0.90288         0.03944
   O        6.17798         1.30254         0.87427
   O        7.96778         0.23930         0.31990
   C        7.49304         0.86975        -2.43827
   C        8.50363        -0.07743        -2.45049
   C        9.04538        -0.70494        -3.56241
   C       10.13173        -1.56384        -3.52489
   S       10.64021        -2.34136        -5.01184
   C       11.97805        -3.17565        -4.25780
   C       12.00570        -2.84738        -2.89503
   C       10.99650        -1.95275        -2.46925
   C       11.09971        -1.66517        -1.09104
   C       12.14256        -2.32861        -0.50728
   C       12.57347        -2.30483         0.89745
   O       13.50211        -2.94815         1.32028
   O       11.81145        -1.49210         1.63032
   C       12.13463        -1.40861         3.01158
   S       13.04874        -3.32484        -1.60524
   C       12.80839        -4.00186        -5.02079
   C       13.89188        -4.68524        -4.52865
   C       14.73336        -5.51688        -5.28366
   C       15.83841        -6.20167        -4.78426
   C       16.44226        -6.94350        -5.82127
   C       15.63801        -6.68118        -7.03116
   C       14.62977        -5.83209        -6.69937
   C       15.85533        -7.20087        -8.31166
   N       16.00753        -7.61031        -9.37472
   C       17.55691        -7.76207        -5.74243
   C       18.14189        -8.52900        -6.78078
   C       19.23253        -9.21875        -6.28168
   C       19.36027        -8.88023        -4.87363
   C       18.36798        -8.01369        -4.53751
   C       18.17500        -7.46483        -3.26573
   N       18.04422        -7.03013        -2.21021
   C       20.10652       -10.11437        -6.94789
   C       20.02029       -10.46303        -8.25616
   C       20.93233       -11.38275        -8.84178
   N       20.85567       -11.75498       -10.17393
   C       21.85683       -12.63844       -10.39141
   N       22.19014       -13.27503       -11.50104
   C       23.23782       -14.06051       -11.29498
   N       23.88657       -14.87731       -12.16589
   C       24.89731       -15.46624       -11.45250
   N       24.95113       -15.10051       -10.21349
   C       23.92972       -14.21090       -10.04227
   N       23.57786       -13.56325        -8.94689
   C       22.53377       -12.77094        -9.12008
   N       21.92229       -11.97866        -8.21334
   H       -1.78813        -0.04082        -6.91507
   H       -0.39191         1.13621        -8.71007
   H        5.00668         2.32679        -8.22260
   H        9.90774         2.39526        -6.91826
   H        9.56803         1.79275        -4.35455
   H        5.02785         2.78207        -3.66898
   H        4.91610         2.44996        -1.04743
   H        8.84297        -0.39612        -1.47620
   H        8.58787        -0.54643        -4.52949
   H       10.46257        -1.01539        -0.52043
   H       11.37944        -0.76644         3.45633
   H       13.13109        -0.98136         3.14193
   H       12.11517        -2.40117         3.46587
   H       12.55675        -4.08480        -6.06874
   H       14.13854        -4.59023        -3.47981
   H       16.17620        -6.17188        -3.76701
   H       13.88007        -5.45711        -7.37060
   H       17.77785        -8.56096        -7.78795
   H       20.12302        -9.26412        -4.22190
   H       20.90322       -10.56049        -6.36802
   H       19.25158       -10.05601        -8.89714
   H       20.18442       -11.43390       -10.85241
   H       23.65847       -15.01323       -13.13696
   H       25.57553       -16.16730       -11.89862
*
