# ORCA input file
# SCF done       -187.796956007408          0.000623116416
! CAM-B3LYP def2-SVP def2/J RIJCOSX Grid4 TightSCF
%maxcore 5000
%tddft
    Mode sTDDFT
    Ethresh 5.0
    maxcore 5000
end

%pal
  nprocs 6
  end
* xyz 0 1
   C       -2.35799         0.15219        -3.94908
   S       -2.34453         1.86282        -3.92143
   C       -0.75346         1.88899        -3.20029
   C       -0.28609         0.60020        -3.01425
   C       -1.20956        -0.38409        -3.44759
   C       -0.85526        -1.83543        -3.38577
   C        0.34055        -2.09755        -4.28837
   S        1.68323        -0.88541        -3.95826
   O        2.84462        -1.59711        -3.50442
   O        1.81824        -0.04943        -5.11784
   C        1.05593         0.16889        -2.58466
   C       -0.15443         3.14052        -2.88184
   C        0.86154         3.41665        -1.99817
   C        1.15740         4.80836        -2.04898
   C        0.20514         5.40004        -3.00876
   C       -0.57879         4.39937        -3.48386
   C        0.04054         6.76190        -3.28843
   N       -0.16009         7.87370        -3.49596
   C        2.14862         5.48111        -1.37267
   C        2.57872         6.81903        -1.58652
   C        3.59947         7.11555        -0.70642
   C        3.83197         5.93987         0.11835
   C        2.99548         4.94925        -0.29252
   C        2.93645         3.66192         0.25073
   N        2.90131         2.60654         0.70380
   C        4.30060         8.35312        -0.71548
   N        5.03192         8.90880         0.31013
   C        5.11311         8.47096         1.68541
   C        3.75545         8.45603         2.37908
   C        5.58245        10.15037        -0.05558
   O        6.26485        10.82123         0.70186
   C        5.14050        10.36259        -1.41039
   C        4.36601         9.23388        -1.79166
   C        3.95302         9.42121        -3.16483
   O        3.30824         8.74316        -3.93280
   N        4.49654        10.68085        -3.51587
   C        4.16540        11.30880        -4.77058
   C        3.06514        12.35163        -4.59553
   C        5.15483        11.26399        -2.47175
   C        5.75009        12.56839        -2.56370
   C        5.85033        13.44772        -1.54977
   C        5.24806        13.27562        -0.25089
   C        5.93389        13.67581         0.90902
   C        5.49498        13.28167         2.22688
   N        6.17918        13.69313         3.30608
   C        7.26264        14.40786         3.14399
   C        7.72454        14.76065         1.82936
   N        7.05742        14.40199         0.76597
   C        8.90187        15.53816         1.68393
   N        9.85649        16.16626         1.60908
   C        7.97460        14.83800         4.29106
   N        8.57610        15.18088         5.20372
   C        4.35400        12.47442         2.41710
   C        3.57266        12.24835         1.27033
   C        4.00628        12.65586        -0.04419
   N        3.11494        12.31211        -0.98134
   S        1.89668        11.53693        -0.29463
   N        2.40967        11.58873         1.22010
   C        3.98105        11.90968         3.68305
   S        2.27943        11.77408         4.04993
   C        2.62034        11.12992         5.59371
   C        3.96049        10.99676         5.81925
   C        4.74988        11.42245         4.72067
   C        6.23455        11.23628         4.76014
   C        6.63255         9.79606         5.06942
   S        5.53927         8.98516         6.29138
   O        4.61655         8.14722         5.57138
   O        6.34278         8.36731         7.30770
   C        4.59444        10.38361         7.00220
   H       -3.21314        -0.36548        -4.33651
   H       -1.70284        -2.44876        -3.69854
   H       -0.60321        -2.10706        -2.35697
   H        0.08951        -1.96119        -5.33660
   H        0.77594        -3.07869        -4.12613
   H        1.77011         0.97842        -2.48435
   H        1.05806        -0.45400        -1.69364
   H        1.36352         2.72309        -1.35515
   H       -1.38027         4.49131        -4.19360
   H        2.18961         7.47273        -2.34091
   H        4.56905         5.84372         0.89207
   H        5.76807         9.20409         2.16577
   H        5.59632         7.49249         1.74556
   H        3.27104         9.42606         2.28253
   H        3.89013         8.23278         3.43548
   H        3.10207         7.70249         1.94528
   H        3.81968        10.50706        -5.42871
   H        5.06307        11.76086        -5.20162
   H        2.15528        11.87328        -4.24240
   H        2.85941        12.83494        -5.54628
   H        3.36470        13.10436        -3.86969
   H        6.16439        12.83412        -3.52745
   H        6.44985        14.33904        -1.67142
   H        1.81825        10.87574         6.25764
   H        6.64900        11.90746         5.51819
   H        6.67414        11.51284         3.80216
   H        7.63604         9.73800         5.48022
   H        6.55902         9.16437         4.18901
   H        5.32518        11.02299         7.49091
   H        3.88070         9.99290         7.72040
*
