# ORCA input file
# SCF done       -168.475812747612          0.000740836538
! CAM-B3LYP def2-SVP def2/J RIJCOSX Grid4 TightSCF
%maxcore 5000
%tddft
    Mode sTDDFT
    Ethresh 5.0
    maxcore 5000
end

%pal
  nprocs 6
  end
* xyz 0 1
   C        0.65404         0.65785         2.88951
   O        0.32551        -0.59202         2.59624
   C       -0.80412        -0.89482         3.28827
   C       -1.19243         0.19767         4.03552
   C       -0.24208         1.21582         3.77746
   C       -0.17058         2.58743         4.30662
   O        0.72031         3.34219         3.99267
   C       -1.27794         2.97033         5.25388
   C       -1.38561        -2.18866         3.15468
   C       -0.93885        -3.22885         2.37582
   C       -1.80508        -4.34400         2.55553
   C       -2.85319        -3.90541         3.49838
   C       -2.59226        -2.61738         3.84367
   C       -3.98694        -4.62145         3.90155
   N       -4.95679        -5.14285         4.22846
   C       -1.71102        -5.59107         1.97795
   C       -2.51119        -6.72939         2.25701
   C       -2.15472        -7.76117         1.40611
   C       -1.07488        -7.27917         0.55873
   C       -0.78244        -5.99852         0.91084
   C        0.21519        -5.21686         0.31793
   N        1.04367        -4.60643        -0.19245
   C       -2.78095        -9.03334         1.43159
   N       -2.81668        -9.97706         0.43717
   C       -2.29110        -9.88957        -0.90570
   C       -2.99753        -8.82241        -1.73505
   C       -3.60463       -11.09095         0.80132
   O       -3.80461       -12.03154         0.06311
   C       -4.03651       -10.80292         2.15150
   C       -3.52279        -9.54123         2.50768
   C       -3.88516        -9.28157         3.88957
   O       -3.63437        -8.36836         4.64375
   N       -4.63327       -10.41403         4.26444
   C       -5.23395       -10.50590         5.57347
   C       -6.71047       -10.11998         5.54718
   C       -4.74642       -11.32557         3.24447
   C       -5.46917       -12.53013         3.34646
   C       -5.58431       -13.40226         2.30274
   C       -6.33651       -14.60237         2.32469
   C       -6.37777       -15.40971         1.15483
   C       -7.12946       -16.63313         1.08960
   N       -7.27143       -17.26599        -0.08778
   C       -6.60883       -16.83216        -1.12823
   C       -5.72908       -15.70197        -1.01962
   N       -5.67644       -15.00854         0.08652
   C       -4.94855       -15.30509        -2.13438
   N       -4.34378       -15.02736        -3.06622
   C       -6.79217       -17.47963        -2.37527
   N       -6.92000       -17.99485        -3.39027
   C       -7.78021       -17.15935         2.22456
   C       -7.77332       -16.35747         3.37834
   C       -7.07175       -15.09205         3.43079
   N       -7.20044       -14.51867         4.62892
   S       -8.09038       -15.46436         5.57707
   N       -8.36464       -16.64775         4.53963
   C       -8.40498       -18.44826         2.18453
   O       -9.49190       -18.70608         2.93365
   C       -9.88616       -19.95319         2.65336
   C       -9.07226       -20.52774         1.72262
   C       -8.08856       -19.55786         1.40824
   C       -6.89156       -19.73505         0.56055
   O       -5.80389       -19.31914         0.89180
   C       -7.12672       -20.52725        -0.69596
   H        1.52868         1.07782         2.43220
   H       -2.04523         0.25482         4.67931
   H       -1.27192         2.30531         6.11492
   H       -2.23936         2.87586         4.75349
   H       -1.13955         3.99558         5.58539
   H       -0.06645        -3.21728         1.75310
   H       -3.17651        -2.00538         4.50433
   H       -3.26622        -6.77580         3.01567
   H       -0.55534        -7.84452        -0.19059
   H       -2.46657       -10.87465        -1.34922
   H       -1.21251        -9.71744        -0.87344
   H       -4.06277        -9.03488        -1.78462
   H       -2.59730        -8.82244        -2.74493
   H       -2.86069        -7.83192        -1.30618
   H       -4.68399        -9.80425         6.20693
   H       -5.10172       -11.51826         5.96423
   H       -6.81924        -9.09976         5.18762
   H       -7.12269       -10.17995         6.55047
   H       -7.27468       -10.78335         4.89558
   H       -5.96132       -12.75978         4.27968
   H       -5.08723       -13.19108         1.36461
   H      -10.75178       -20.32181         3.16798
   H       -9.14757       -21.52086         1.33098
   H       -7.96840       -20.11390        -1.24606
   H       -7.36277       -21.55627        -0.43153
   H       -6.23626       -20.51442        -1.31857
*
