# ORCA input file
# SCF done       -216.666993069086          0.000765673734
! CAM-B3LYP def2-SVP def2/J RIJCOSX Grid4 TightSCF
%maxcore 5000
%tddft
    Mode sTDDFT
    Ethresh 5.0
    maxcore 5000
end

%pal
  nprocs 6
  end
* xyz 0 1
   C       -8.18045        -2.40909         3.57185
   C       -7.17969        -3.33329         3.41344
   C       -7.16052        -4.59302         4.04680
   N       -7.09709        -5.63283         4.52956
   C       -6.02212        -3.14127         2.62946
   N       -5.04039        -3.05405         2.04040
   C       -9.32701        -2.53583         4.46347
   C      -10.06463        -1.32688         4.42962
   C      -11.20255        -1.13395         5.17428
   C      -11.62921        -2.18026         5.99906
   C      -10.88736        -3.38536         6.02420
   C       -9.73980        -3.58310         5.26604
   S      -11.59443        -4.54882         7.10349
   C      -12.85705        -3.41511         7.50450
   C      -12.75766        -2.22668         6.86265
  Br      -14.18864        -3.90772         8.72948
   C       -9.43385        -0.38877         3.47993
   O       -9.88660         0.67575         3.11723
   C       -8.23392        -1.09637         2.96295
   C       -7.44779        -0.64124         1.94388
   C       -7.35842         0.70988         1.51787
   C       -7.08147         1.01796         0.16399
   C       -7.02541         2.36543        -0.32424
   N       -6.80704         2.57696        -1.62862
   C       -6.64766         1.56578        -2.42981
   C       -6.70718         0.24158        -1.94774
   N       -6.92407        -0.01069        -0.69589
   F       -6.55043        -0.78888        -2.77574
   F       -6.43258         1.82559        -3.72363
   C       -7.21171         3.48999         0.53318
   C       -7.39225         3.16783         1.91171
   C       -7.45429         1.81388         2.39555
   N       -7.55284         1.76694         3.72213
   S       -7.61997         3.26220         4.29553
   N       -7.49153         4.05258         2.89934
   C       -7.23108         4.84194         0.17788
   C       -7.07040         5.51390        -1.02285
   C       -7.15134         6.92666        -1.10053
   C       -6.96153         7.43871        -2.35243
   C       -6.71736         6.44353        -3.31538
   S       -6.74311         4.85266        -2.60008
   C       -6.46945         6.59865        -4.67852
   C       -6.41129         7.78980        -5.42587
   C       -6.13704         7.57291        -6.74532
   C       -5.96201         6.20972        -7.09327
   S       -6.17372         5.20502        -5.68339
   C       -5.65603         5.81564        -8.38338
   C       -5.40571         4.55930        -8.94374
   C       -5.07785         4.48733       -10.33749
   C       -4.74737         3.25892       -10.98315
   N       -4.44868         3.25407       -12.30036
   C       -4.46093         4.37289       -12.95063
   C       -4.77611         5.59403       -12.30607
   N       -5.07741         5.63163       -11.04527
   F       -4.78683         6.74517       -12.97493
   F       -4.17843         4.34030       -14.24860
   C       -4.66865         2.02919       -10.27930
   C       -5.05546         2.07801        -8.92086
   C       -5.42271         3.31159        -8.27062
   N       -5.76330         3.10930        -7.00366
   S       -5.65236         1.54506        -6.64947
   N       -5.16230         1.03825        -8.09206
   C       -4.28692         0.84515       -10.96143
   C       -3.78104        -0.31384       -10.45459
   C       -3.20031        -0.64675        -9.17487
   C       -2.53284         0.20921        -8.33660
   C       -1.93436        -0.18123        -7.12234
   N       -1.45095        -0.43424        -6.11207
   C       -2.32489         1.57451        -8.61086
   N       -2.11631         2.69007        -8.78759
   C       -3.24386        -2.09763        -9.04171
   C       -3.62113        -2.65846       -10.28856
   C       -3.88147        -1.56969       -11.25292
   O       -4.16613        -1.66682       -12.42286
   C       -3.72619        -4.01390       -10.48442
   C       -3.45822        -4.85335        -9.39726
   C       -3.09562        -4.28215        -8.15343
   C       -2.97982        -2.91117        -7.95703
   S       -2.82483        -5.49989        -6.94512
   C       -3.19110        -6.74363        -8.11110
   C       -3.50328        -6.27320        -9.34220
  Br       -3.13213        -8.54436        -7.59257
   H      -11.74528        -0.20295         5.12566
   H       -9.21339        -4.52174         5.31354
   H      -13.45135        -1.41587         6.99081
   H       -6.86250        -1.34281         1.36318
   H       -7.40711         5.49142         1.02922
   H       -7.34824         7.52303        -0.22705
   H       -6.99036         8.48712        -2.58913
   H       -6.56764         8.76011        -4.99012
   H       -6.04845         8.35188        -7.48189
   H       -5.57720         6.62446        -9.10085
   H       -4.46763         0.85117       -12.03155
   H       -4.00773        -4.41638       -11.44480
   H       -2.70885        -2.51872        -6.99085
   H       -3.75633        -6.90015       -10.17754
*
