# ORCA input file
# SCF done       -195.826949202599          0.000780279044
! CAM-B3LYP def2-SVP def2/J RIJCOSX Grid4 TightSCF
%maxcore 5000
%tddft
    Mode sTDDFT
    Ethresh 5.0
    maxcore 5000
end

%pal
  nprocs 6
  end
* xyz 0 1
   C       -4.31155         1.16819        -7.88398
   C       -4.22529         2.49782        -7.55439
   C       -3.28409         3.39078        -8.10692
   N       -2.54130         4.16135        -8.52114
   C       -5.08027         3.14690        -6.64329
   N       -5.76365         3.72470        -5.92190
   C       -3.49146         0.47088        -8.87009
   C       -3.93588        -0.87421        -8.97431
   C       -3.36155        -1.78030        -9.83228
   C       -2.29712        -1.34180       -10.62723
   C       -1.85895         0.00008       -10.51628
   C       -2.44048         0.91710        -9.64809
   S       -0.53303         0.32920       -11.58748
   C       -0.58337        -1.31570       -12.16379
   C       -1.54446        -2.07475       -11.58366
  Br        0.63402        -1.87523       -13.47492
   C       -5.05339        -1.07851        -8.04489
   O       -5.68949        -2.10562        -7.84437
   C       -5.25544         0.20651        -7.36540
   C       -6.19456         0.36237        -6.37943
   N       -7.01071        -0.64784        -6.04329
   C       -8.02074        -0.61578        -5.12786
   S       -8.46295        -2.09474        -4.33371
   C       -9.61792        -1.21883        -3.38518
   N      -10.39151        -1.93224        -2.45470
   O      -11.18286        -1.30016        -1.78280
   O      -10.20513        -3.13286        -2.39434
   C       -9.65983         0.11823        -3.67028
   C       -8.75622         0.49110        -4.68707
   C       -8.66720         1.80763        -5.26024
   C       -9.05229         2.94132        -4.63889
   C       -8.96104         4.22274        -5.25469
   O       -8.58289         4.28987        -6.56477
   C       -8.59307         5.54653        -6.95746
   C       -8.98930         6.36737        -5.92689
   N       -9.14223         7.76483        -5.97803
   O       -8.83231         8.33281        -7.00211
   O       -9.58969         8.31319        -4.97910
   C       -9.22493         5.51576        -4.79243
   N       -9.63454         5.99254        -3.58874
   C       -9.64396         5.36548        -2.39132
   C      -10.23284         5.89157        -1.27787
   C      -10.25886         5.31864         0.02000
   C      -10.95213         6.05067         0.93219
   C      -11.51594         7.23949         0.41120
   S      -11.12498         7.41344        -1.28095
   C      -12.29548         8.16763         1.07771
   C      -12.71238         8.13835         2.42581
   C      -13.50131         9.19331         2.77761
   C      -13.74801        10.10645         1.72719
   S      -12.92874         9.58925         0.27503
   C      -14.50980        11.25653         1.80388
   C      -14.73553        12.10133         0.72346
   C      -15.44632        13.28215         0.69478
   C      -15.93773        13.78756        -0.60777
   O      -15.62123        13.39018        -1.70898
   C      -16.92792        14.83159        -0.27547
   C      -17.74004        15.54274        -1.10890
   C      -18.64991        16.47307        -0.55668
   C      -18.70007        16.64205         0.85692
   C      -19.61548        17.56259         1.40239
   C      -20.43116        18.27352         0.56679
   C      -20.39555        18.12348        -0.82549
   C      -19.51307        17.23290        -1.37147
   F      -21.30775        19.15431         1.08727
   C      -17.83803        15.89581         1.69594
   C      -16.96025        15.00812         1.13741
   C      -15.94791        14.13456         1.73601
   C      -15.45378        14.27397         3.01317
   C      -14.29382        13.64039         3.49868
   N      -13.33475        13.19247         3.94595
   C      -15.98840        15.15843         3.96956
   N      -16.38941        15.84269         4.80091
   H       -3.72219        -2.79521        -9.89052
   H       -2.06980         1.92733        -9.59905
   H       -1.71573        -3.10891       -11.82029
   H       -6.28698         1.28330        -5.82238
   H       -6.78937        -1.53720        -6.52104
   H      -10.34787         0.78611        -3.18557
   H       -8.27462         1.88147        -6.26350
   H       -9.44125         2.90674        -3.63495
   H       -8.31942         5.78307        -7.96714
   H       -9.90683         6.98023        -3.61258
   H       -9.13509         4.41665        -2.32158
   H       -9.76724         4.38626         0.23291
   H      -11.07820         5.76972         1.96169
   H      -12.42729         7.34726         3.09557
   H      -13.91044         9.34910         3.75967
   H      -14.96495        11.46798         2.76013
   H      -14.38936        11.76359        -0.24977
   H      -17.69148        15.39723        -2.17769
   H      -19.66826        17.70669         2.47028
   H      -21.06308        18.71186        -1.43488
   H      -19.46662        17.09911        -2.44187
   H      -17.90365        16.04239         2.76227
*
