# ORCA input file
# SCF done       -177.341272574574          0.000579779860
! CAM-B3LYP def2-SVP def2/J RIJCOSX Grid4 TightSCF
%maxcore 5000
%tddft
    Mode sTDDFT
    Ethresh 5.0
    maxcore 5000
end

%pal
  nprocs 6
  end
* xyz 0 1
   C       10.95880        -1.99977         4.12396
   C       11.08097        -2.35207         2.83687
   C       12.28378        -2.43324         2.05879
   C       12.09657        -2.82487         0.77902
   C       10.74101        -3.08510         0.43544
   S        9.70215        -2.80474         1.82129
   C       10.25089        -3.50223        -0.77774
   C       10.97430        -3.77617        -1.96488
   C       10.19757        -4.18960        -2.99912
   C        8.81066        -4.27164        -2.70365
   S        8.53679        -3.78565        -1.03848
   C        7.84527        -4.68073        -3.58648
   C        6.46577        -4.80136        -3.36568
   S        5.77006        -4.40354        -1.80818
   C        4.19387        -4.91678        -2.31204
   N        3.14276        -4.80993        -1.46177
   C        3.27769        -4.10075        -0.21522
   C        4.18592        -5.38294        -3.62495
   C        5.47763        -5.28446        -4.22662
   C        5.69868        -5.71856        -5.60913
   O        4.98929        -6.48727        -6.21704
   O        6.78422        -5.15598        -6.18536
   C        7.02559        -5.54039        -7.52911
   C        3.01548        -5.85837        -4.30711
   C        1.93576        -6.41603        -3.72116
   C        0.79501        -6.87762        -4.43847
   S        0.83600        -6.99457        -6.17365
   C       -0.72259        -7.78031        -6.21771
   N       -1.26162        -8.12181        -7.43618
   C       -2.57389        -7.62225        -7.80821
   C       -1.25229        -7.94373        -4.95087
   C       -0.39747        -7.37853        -3.94485
   C       -0.77191        -7.35641        -2.52747
   O       -1.53251        -8.11919        -1.98231
   O       -0.19382        -6.32480        -1.86199
   C       -0.51124        -6.21572        -0.48387
   C       -2.46906        -8.64931        -4.64234
   C       -2.97535        -9.64873        -5.39263
   C       -4.15836       -10.36900        -5.06844
   S       -5.06051        -9.95208        -3.62838
   C       -6.20775       -11.22040        -3.91146
   N       -7.22609       -11.41896        -3.03690
   C       -7.27650       -10.69120        -1.79464
   C       -5.91060       -11.95821        -5.05511
   C       -4.72826       -11.45724        -5.70023
   C       -4.19339       -12.06911        -6.92579
   O       -4.25162       -13.24448        -7.20276
   O       -3.61774       -11.17180        -7.75062
   C       -3.06064       -11.70425        -8.94072
   C       -6.66542       -13.06616        -5.54764
   C       -7.96436       -13.36304        -5.27759
   C       -8.60417       -14.51299        -5.78334
   C       -9.90583       -14.84401        -5.52873
   C      -10.61320       -15.97994        -5.99994
   C      -11.90140       -16.05865        -5.57768
   C      -12.30369       -14.98714        -4.73985
   S      -10.97034       -13.87125        -4.51087
   C      -13.53170       -14.78565        -4.16084
   C      -14.68620       -15.60803        -4.26875
   C      -15.76248       -15.15581        -3.58750
   C      -15.54508       -13.92745        -2.87914
   S      -13.87640       -13.39606        -3.14101
   C      -16.42137       -13.24651        -2.12783
   H       11.82422        -1.73252         4.70418
   H       10.00338        -1.97265         4.61467
   H       13.23675        -2.19447         2.49683
   H       12.88702        -2.93963         0.05840
   H       12.04224        -3.66264        -2.01741
   H       10.57007        -4.44476        -3.97585
   H        8.18957        -4.94901        -4.57389
   H        2.23236        -4.78157        -1.90223
   H        3.45433        -3.02926        -0.36120
   H        4.12219        -4.51038         0.33969
   H        2.37084        -4.23796         0.36877
   H        7.92081        -5.00828        -7.84057
   H        6.17799        -5.26679        -8.16081
   H        7.17527        -6.62024        -7.59564
   H        3.04011        -5.79399        -5.38651
   H        1.91578        -6.60038        -2.65898
   H       -0.59086        -8.01525        -8.18774
   H       -2.55468        -6.55441        -8.05333
   H       -3.26813        -7.78275        -6.98815
   H       -2.92326        -8.18012        -8.67461
   H        0.12421        -6.88307         0.10322
   H       -1.55581        -6.48379        -0.31407
   H       -0.33248        -5.17972        -0.20361
   H       -2.94541        -8.39441        -3.70554
   H       -2.45773        -9.96325        -6.28473
   H       -7.59399       -12.36064        -3.01710
   H       -7.25881        -9.62152        -2.00714
   H       -6.42833       -10.92322        -1.13995
   H       -8.20401       -10.93507        -1.28222
   H       -2.35890       -12.50767        -8.70663
   H       -2.54890       -10.88097        -9.43275
   H       -3.84807       -12.10487        -9.58306
   H       -6.13009       -13.71525        -6.22629
   H       -8.58421       -12.69427        -4.69550
   H       -8.02784       -15.18549        -6.40507
   H      -10.13689       -16.70213        -6.64012
   H      -12.57723       -16.85276        -5.84081
   H      -14.67533       -16.51167        -4.85275
   H      -16.71997       -15.64507        -3.55394
   H      -17.42638       -13.60650        -1.99586
   H      -16.15360       -12.32847        -1.63815
*
