# ORCA input file
# SCF done       -138.524868604994          0.000649081229
! CAM-B3LYP def2-SVP def2/J RIJCOSX Grid4 TightSCF
%maxcore 5000
%tddft
    Mode sTDDFT
    Ethresh 5.0
    maxcore 5000
end

%pal
  nprocs 6
  end
* xyz 0 1
   C       -3.64445        -5.91423         3.51533
   C       -2.55900        -6.18303         2.77548
   C       -2.51190        -6.75519         1.46155
   C       -1.26390        -6.90744         0.96264
   C       -0.22563        -6.47473         1.83058
   S       -0.90761        -5.85786         3.32550
   C        1.12977        -6.50790         1.59937
   C        1.79714        -6.97318         0.44048
   C        3.15203        -6.88270         0.51138
   C        3.63686        -6.34269         1.72853
   S        2.29509        -5.94547         2.78647
   C        4.95155        -6.15193         2.06937
   C        5.39645        -5.63367         3.29806
   O        4.50761        -5.25851         4.25409
   C        5.20878        -4.82900         5.31334
   C        6.54861        -4.90686         5.09266
   C        6.69929        -5.43129         3.78161
   N        7.83621        -5.65488         3.04846
   C        9.10593        -5.89077         3.48296
   C        9.50130        -6.12911         4.76380
   C       10.83265        -6.39373         5.11227
   C       11.25281        -6.71345         6.38445
   C       12.55269        -7.07844         6.78823
   C       12.65976        -7.39791         8.11494
   C       11.45664        -7.28308         8.82901
   S       10.17011        -6.75547         7.77090
   C       11.23251        -7.55641        10.17605
   C       12.12983        -8.08899        11.10949
   C       11.57236        -8.29282        12.34777
   C       10.23312        -7.89220        12.45821
   S        9.67383        -7.28309        10.92040
   C        9.43668        -8.10010        13.58970
   C        8.18931        -7.61948        13.91948
   C        7.47072        -6.52001        13.43929
   C        6.15796        -6.20800        13.82528
   C        5.69441        -5.00416        13.35727
   C        6.63966        -4.29797        12.60147
   S        8.11793        -5.22334        12.46429
   C        6.52251        -3.03048        12.04066
   C        5.41830        -2.16196        12.10714
   C        5.62566        -0.95688        11.49817
   C        6.90916        -0.81369        10.92427
   S        7.83821        -2.28322        11.16315
   C        7.39996         0.30592        10.29582
   C        8.68614         0.40458         9.73219
   O        9.47992        -0.70500         9.70714
   C       10.60677        -0.39512         9.05630
   C       10.59767         0.90399         8.65285
   C        9.36561         1.45260         9.09507
   N        8.99299         2.75653         8.89364
   C        8.11036         3.50003         9.63630
   C        7.80321         4.76508         9.36386
   H       -4.62999        -6.12846         3.14139
   H       -3.56742        -5.48156         4.49566
   H       -3.41762        -7.02769         0.94916
   H       -1.04641        -7.32080        -0.00655
   H        1.26159        -7.35967        -0.40817
   H        3.82498        -7.18854        -0.27099
   H        5.70406        -6.43910         1.34860
   H        4.65097        -4.48832         6.16255
   H        7.31984        -4.59644         5.76503
   H        7.68020        -5.74560         2.05459
   H        9.84044        -5.90745         2.68849
   H        8.76968        -6.17379         5.55540
   H       11.58412        -6.37615         4.33344
   H       13.37045        -7.10801         6.08940
   H       13.57502        -7.70551         8.58849
   H       13.14902        -8.32494        10.86121
   H       12.10629        -8.70694        13.18578
   H        9.87285        -8.79375        14.30079
   H        7.69543        -8.12809        14.74064
   H        5.57735        -6.87907        14.43473
   H        4.70833        -4.62186        13.55076
   H        4.50429        -2.43725        12.60239
   H        4.89929        -0.16438        11.45192
   H        6.74194         1.15520        10.20237
   H       11.33849        -1.17062         8.94710
   H       11.36769         1.41969         8.11577
   H        9.53630         3.26599         8.21080
   H        7.69136         2.98859        10.48855
   H        8.22454         5.28351         8.51943
   H        7.11870         5.31430         9.98046
*
