# ORCA input file
# SCF done       -178.040094059801          0.000384493388
! CAM-B3LYP def2-SVP def2/J RIJCOSX Grid4 TightSCF
%maxcore 5000
%tddft
    Mode sTDDFT
    Ethresh 5.0
    maxcore 5000
end

%pal
  nprocs 6
  end
* xyz 0 1
   C       -2.12932         0.59623        -9.06488
   S       -3.29360         1.66273        -8.35804
   C       -2.61821        -0.64518        -9.33734
   C       -3.97348        -0.77272        -8.96822
   C       -5.05468        -1.76344        -9.00058
   C       -5.03577        -3.00919        -9.51810
   C       -6.28705        -3.84349        -9.60116
   N       -6.58134        -4.47055        -8.31468
   C       -3.74622        -3.67437        -9.93423
   N       -2.88547        -4.00288        -8.80423
   C       -4.46890         0.41710        -8.42533
   C       -5.82513         0.23286        -8.06683
   S       -7.07612         1.11839        -7.30811
   C       -6.19685        -1.08010        -8.38435
   C       -7.49193        -1.37584        -7.96030
   C       -8.11895        -0.29618        -7.36466
   C       -9.42330        -0.28456        -6.81294
   C      -10.02980         0.80214        -6.27962
   C      -11.31010         0.79369        -5.66862
   S      -12.15468        -0.71108        -5.44536
   C      -13.45749         0.09966        -4.67350
   C      -13.29148         1.44491        -4.59506
   C      -14.30116         2.31243        -3.91671
   C      -12.05323         1.87294        -5.17651
   C      -11.56315         3.21437        -5.29509
   C      -12.24284         4.37594        -5.18060
   C      -11.66833         5.67340        -5.39732
   C      -10.35104         5.95401        -5.47497
   C       -9.74538         7.21807        -5.79673
   C      -10.22002         8.19915        -6.58062
   C      -11.52141         8.16807        -7.31874
   C       -9.32758         9.37599        -6.89477
   N       -8.51346         9.02110        -8.04436
   C       -7.19915         9.22379        -8.17830
   C       -6.43577        10.09643        -7.44844
   C       -5.04598        10.24603        -7.56970
   C       -4.12918         9.43249        -8.19915
   C       -2.74245         9.68773        -8.29325
   C       -2.02243         8.70624        -8.91162
   C       -2.80116         7.61019        -9.33214
   S       -4.47633         7.87220        -8.93952
   C       -2.38433         6.44917        -9.97003
   C       -1.09401         6.11793       -10.41411
   C       -1.01807         4.88513       -11.00447
   C       -2.24138         4.18949       -11.04442
   S       -3.50520         5.14826       -10.31855
   C       -2.44721         2.91236       -11.54687
   C       -3.66592         2.26041       -11.49816
   C       -3.87738         0.95080       -11.91081
   C       -5.09775         0.20666       -11.81263
   C       -6.30058         0.62044       -11.27673
   C       -7.42261        -0.21261       -11.13309
   N       -8.37016        -0.84517       -10.97194
   C       -6.57658         1.90391       -10.77227
   N       -6.90024         2.92506       -10.35292
   C       -4.85258        -1.12761       -12.36078
   C       -3.49681        -1.20992       -12.75318
   C       -2.83451         0.08509       -12.47207
   O       -1.65923         0.33637       -12.67522
   C       -2.94987        -2.33983       -13.30678
   C       -3.78427        -3.45087       -13.47893
   C       -5.13862        -3.35519       -13.09310
   C       -5.69363        -2.20696       -12.53988
   S       -5.99072        -4.84401       -13.38353
   C       -4.52999        -5.56204       -14.01150
   C       -3.46144        -4.73253       -14.00589
  Br       -4.55711        -7.34146       -14.61070
   H       -1.13879         0.96237        -9.24603
   H       -2.00721        -1.41115        -9.77896
   H       -6.16324        -4.58132       -10.41308
   H       -7.13235        -3.20099        -9.85947
   H       -5.85757        -5.14180        -8.07771
   H       -7.45876        -4.97675        -8.37037
   H       -3.17917        -3.03094       -10.61082
   H       -3.95823        -4.60887       -10.46225
   H       -2.60094        -3.15454        -8.32579
   H       -3.39533        -4.56758        -8.13206
   H       -7.96818        -2.33345        -8.03812
   H       -9.94533        -1.23294        -6.83087
   H       -9.49882         1.74384        -6.31090
   H      -14.28573        -0.47672        -4.30985
   H      -14.99405         1.69394        -3.34994
   H      -14.87776         2.88073        -4.64639
   H      -13.81358         3.00733        -3.23573
   H      -10.51838         3.28359        -5.56206
   H      -13.30298         4.37245        -4.98711
   H      -12.38016         6.48350        -5.46856
   H       -9.63627         5.16912        -5.26508
   H       -8.74311         7.34505        -5.40172
   H      -11.82059         7.14394        -7.53164
   H      -11.44181         8.71745        -8.25614
   H      -12.31052         8.63774        -6.73037
   H       -8.66982         9.60117        -6.05383
   H       -9.92500        10.26636        -7.12452
   H       -8.94745         8.36419        -8.67583
   H       -6.74392         8.67285        -8.98835
   H       -6.92415        10.75595        -6.74565
   H       -4.61751        11.10653        -7.06983
   H       -2.31304        10.59209        -7.89844
   H       -0.95773         8.73685        -9.05601
   H       -0.25828         6.78463       -10.29734
   H       -0.11719         4.45743       -11.40720
   H       -1.59403         2.39796       -11.96422
   H       -4.50467         2.80960       -11.08755
   H       -1.91085        -2.36988       -13.59572
   H       -6.73664        -2.18290       -12.27523
   H       -2.48394        -5.01029       -14.35572
*
