# ORCA input file
# SCF done       -188.133988723825          0.000351411878
! CAM-B3LYP def2-SVP def2/J RIJCOSX Grid4 TightSCF
%maxcore 5000
%tddft
    Mode sTDDFT
    Ethresh 5.0
    maxcore 5000
end

%pal
  nprocs 6
  end
* xyz 0 1
   C        6.99502        -1.33037        -4.59946
   C        5.72649        -1.64277        -4.40334
   C        4.79172        -2.24121        -5.42984
   C        5.37231        -3.42727        -6.14427
   C        4.97146        -4.55441        -5.58365
   C        4.08334        -4.29641        -4.40313
   C        3.63892        -2.83846        -4.59550
   C        3.53775        -1.95920        -3.33987
   C        3.15264        -2.65137        -2.01917
   C        4.41688        -2.61250        -1.18926
   C        4.44736        -2.98934         0.23750
   C        4.75221        -4.23638         0.73010
   C        4.91761        -5.49440         0.07345
   S        4.18709        -5.79776        -1.45870
   C        4.57405        -7.48156        -1.44785
   C        4.56052        -8.24889        -2.68211
   C        5.76252        -8.67524        -3.18277
   C        7.06631        -8.56643        -2.53248
   C        7.75914        -7.44440        -2.38112
   C        9.02400        -7.32595        -1.56836
   C       10.11020        -8.25009        -2.03363
   C       11.04513        -7.60110        -2.70313
   C       10.75670        -6.13583        -2.81291
   C        9.57340        -5.90868        -1.84829
   C        8.38250        -5.08643        -2.37916
   C        8.71359        -4.12417        -3.52700
   C        8.46006        -4.95704        -4.74933
   C        7.75917        -6.04250        -4.47062
   C        7.43024        -6.12312        -3.00235
   S        5.60758        -9.47420        -4.71530
   C        3.87346        -9.25695        -4.69174
   C        3.02740        -9.72725        -5.67910
   C        3.55314       -10.46604        -6.87306
   C        3.54203       -11.97465        -6.61958
   C        1.65963        -9.54608        -5.45946
   C        0.56182        -9.95947        -6.27478
   C       -0.63582        -9.67225        -5.72923
   S       -0.52351        -8.87948        -4.19566
   C        1.22142        -8.92286        -4.26953
   C        2.06952        -8.44128        -3.28270
   C        1.48411        -7.84073        -2.03940
   C        0.96657        -6.42278        -2.28402
   C        3.44044        -8.58890        -3.51895
   C        5.21749        -7.81371        -0.26267
   C        5.56011        -9.10651         0.22813
   C        4.96584       -10.35488        -0.35940
   F        4.86690       -11.33052         0.56404
   F        3.71863       -10.17181        -0.82297
   F        5.66450       -10.90570        -1.37066
   C        6.33472        -9.21926         1.34978
   C        6.77088        -8.07422         2.04377
   C        6.31914        -6.83492         1.69916
   C        5.48497        -6.67431         0.57220
   S        4.81593        -4.26467         2.48576
   C        4.45981        -2.56868         2.56781
   C        4.40366        -1.88204         3.76685
   C        4.60159        -2.58303         5.07718
   C        3.26227        -3.05775         5.64343
   C        4.10876        -0.52125         3.68577
   C        3.99435         0.43945         4.73518
   C        3.69167         1.67286         4.28531
   S        3.51561         1.75716         2.56759
   C        3.86948         0.04990         2.41669
   C        3.91014        -0.64236         1.21412
   C        3.50978         0.11420        -0.01883
   C        1.98580         0.25325        -0.09036
   C        4.25310        -2.00592         1.27965
   C        5.41802        -2.03186        -1.84665
   C        4.96165        -1.39700        -3.13035
   H        7.48581        -1.50901        -5.54036
   H        7.59190        -0.87204        -3.82791
   H        4.45979        -1.45728        -6.11780
   H        6.03966        -3.32324        -6.98075
   H        5.24857        -5.55213        -5.87352
   H        4.68629        -4.38651        -3.49756
   H        3.25152        -4.99824        -4.34183
   H        2.69967        -2.82538        -5.15386
   H        2.83629        -1.14885        -3.55380
   H        2.81421        -3.67532        -2.17408
   H        2.34291        -2.12441        -1.51416
   H        7.45620        -9.49301        -2.13052
   H        8.77937        -7.48456        -0.51218
   H       10.06993        -9.30811        -1.84526
   H       11.91598        -8.03547        -3.16363
   H       10.48992        -5.90814        -3.84657
   H       11.62364        -5.52857        -2.54744
   H        9.95575        -5.45881        -0.92903
   H        7.90968        -4.56646        -1.54239
   H        9.72910        -3.73195        -3.47417
   H        8.02528        -3.27428        -3.52549
   H        8.79864        -4.65185        -5.72456
   H        7.43245        -6.80131        -5.15896
   H        6.37519        -5.86918        -2.86504
   H        4.57748       -10.14300        -7.07260
   H        2.94599       -10.23600        -7.75029
   H        4.16484       -12.21454        -5.76106
   H        3.92597       -12.50721        -7.48635
   H        2.53045       -12.31932        -6.41679
   H        0.67544       -10.45393        -7.22243
   H       -1.61047        -9.87550        -6.12869
   H        2.22647        -7.84155        -1.24205
   H        0.64857        -8.46738        -1.71671
   H        1.75626        -5.79059        -2.68307
   H        0.60768        -5.98707        -1.35484
   H        0.14727        -6.43663        -2.99841
   H        6.59868       -10.19521         1.72703
   H        7.42957        -8.19752         2.88878
   H        6.61495        -5.97272         2.27372
   H        5.08365        -1.91140         5.78899
   H        5.25391        -3.44683         4.92783
   H        2.59396        -2.21345         5.79774
   H        3.41155        -3.56366         6.59409
   H        2.78783        -3.75119         4.95304
   H        4.13485         0.20755         5.77527
   H        3.55060         2.56924         4.85747
   H        3.87450        -0.37678        -0.91191
   H        3.94945         1.11439         0.02739
   H        1.69746         0.73780        -1.02009
   H        1.61549         0.85212         0.73762
   H        1.50683        -0.72251        -0.04043
   H        6.41553        -1.88543        -1.46905
   H        4.94746        -0.31034        -2.95757
*
