# ORCA input file
# SCF done       -140.814571163589          0.000378290186
! CAM-B3LYP def2-SVP def2/J RIJCOSX Grid4 TightSCF
%maxcore 5000
%tddft
    Mode sTDDFT
    Ethresh 5.0
    maxcore 5000
end

%pal
  nprocs 6
  end
* xyz 0 1
   C       -0.76343         2.13563         2.98041
   C       -0.02189         3.10653         2.45104
   C        0.98143         3.85412         3.15613
   C        1.44138         3.79880         4.45751
   C        2.43496         4.78048         4.58476
   C        3.25126         5.09548         5.78649
   C        2.52838         5.38876         3.33662
   C        3.38879         6.43418         2.91229
   C        3.44357         6.89049         1.63886
   C        4.27913         7.93351         1.15870
   S        3.67349         8.88433        -0.16183
   C        4.99637        10.00761        -0.10113
   C        5.03528        11.13290        -0.94947
   C        4.09666        11.42639        -1.88789
   C        4.14044        12.59308        -2.68663
   C        3.25048        13.04778        -3.65221
   C        3.73203        14.27692        -4.10716
   C        3.11606        15.17950        -5.11468
   C        4.90722        14.51356        -3.39084
   C        5.76431        15.63921        -3.43012
   C        6.87894        15.77457        -2.67026
   C        7.69968        16.93428        -2.65974
   S        9.41237        16.74475        -2.46849
   C        9.73349        18.43051        -2.73110
   C       11.05778        18.92992        -2.76283
   C       12.17071        18.17284        -2.61636
   C       13.49127        18.70196        -2.67499
   C       14.71092        18.06380        -2.57431
   C       15.70454        19.05809        -2.71839
   C       17.17974        18.86548        -2.68805
   C       15.01824        20.22874        -2.89502
   O       13.69316        20.02746        -2.87100
   C        8.53326        19.13102        -2.90982
   C        8.35596        20.52394        -3.12392
   C        9.41891        21.44530        -3.24476
   N       10.20555        22.27254        -3.36525
   C        7.08074        21.05207        -3.21364
   C        5.95730        20.24327        -3.04975
   C        6.08321        18.87986        -2.85311
   C        4.88554        18.18441        -2.57614
   N        3.85729        17.73970        -2.32544
   C        7.37307        18.28254        -2.84223
   O        5.14372        13.48797        -2.54093
   C        5.91167         9.62139         0.88929
   C        7.13048        10.25889         1.23904
   C        7.59389        11.45086         0.64064
   N        8.05536        12.41258         0.21595
   C        7.94750         9.70266         2.20760
   C        7.61602         8.49109         2.81024
   C        6.43413         7.83947         2.50371
   C        6.27712         6.55852         3.07612
   N        6.28116         5.51800         3.56132
   C        5.52032         8.42257         1.58379
   O        1.64636         4.81740         2.48107
   H       -1.50001         1.61293         2.39694
   H       -0.65734         1.83464         4.00783
   H       -0.14622         3.39266         1.41521
   H        1.10432         3.12979         5.22267
   H        3.04002         4.38518         6.58107
   H        3.03101         6.09958         6.14880
   H        4.31142         5.04926         5.54068
   H        4.00051         6.86641         3.68783
   H        2.73174         6.49615         0.92514
   H        5.86452        11.81289        -0.82931
   H        3.25256        10.77025        -2.04767
   H        2.36067        12.54373        -3.97176
   H        2.19458        14.74647        -5.49380
   H        3.79514        15.34713        -5.94992
   H        2.89229        16.14392        -4.65987
   H        5.47579        16.41110        -4.12744
   H        7.21796        14.93202        -2.08237
   H       11.17723        19.99019        -2.92736
   H       12.09677        17.10659        -2.45313
   H       14.86776        17.01579        -2.41844
   H       17.48991        18.19291        -3.48658
   H       17.48517        18.42399        -1.74063
   H       17.68851        19.81745        -2.81326
   H       15.35845        21.23488        -3.04285
   H        6.95708        22.11187        -3.37871
   H        4.97327        20.68772        -3.05708
   H        8.87024        10.19738         2.47109
   H        8.30002         8.03968         3.51335
*
