# ORCA input file
# SCF done       -148.210512045432          0.000836395361
! CAM-B3LYP def2-SVP def2/J RIJCOSX Grid4 TightSCF
%maxcore 5000
%tddft
    Mode sTDDFT
    Ethresh 5.0
    maxcore 5000
end

%pal
  nprocs 6
  end
* xyz 0 1
   O        0.26590        -0.00581         2.06814
   C       -0.82981         0.35054         1.71195
   C       -1.89668        -0.51786         1.08076
   C       -1.65317        -1.87527         0.83765
   C       -2.53191        -2.75880         0.26587
   C       -2.24367        -4.09999         0.00378
   S       -0.69560        -4.85078         0.36183
   C       -1.15889        -6.41382        -0.28154
   C       -0.27265        -7.49225        -0.29333
   C        1.04410        -7.51892         0.18915
   C        1.63345        -8.74840         0.00316
   C        0.79997        -9.69060        -0.62135
   S       -0.74731        -9.03888        -0.97974
   C        1.46228       -10.92262        -0.78827
   C        2.74081       -10.81611        -0.27013
   C        3.77127       -11.77612        -0.18758
   C        3.70640       -13.02040        -0.73518
   C        4.74282       -13.99673        -0.70448
   C        5.71838       -14.11565         0.31438
   C        5.81331       -13.48073         1.65096
   O        5.08752       -12.72334         2.21557
   O        6.94562       -13.98325         2.26624
   C        7.56548       -14.91741         1.48241
   O        8.55844       -15.49044         1.80277
   C        6.75647       -15.04180         0.24407
   C        6.91103       -15.93157        -0.80520
   C        5.92439       -15.87955        -1.77940
   C        5.92065       -16.79987        -2.93750
   O        6.71755       -17.65295        -3.18589
   S        4.49846       -16.43262        -3.95384
   C        3.94245       -15.09578        -2.87191
   O        2.95456       -14.46761        -3.12085
   C        4.87047       -14.96592        -1.73958
   C        2.93660        -9.42132         0.25372
   O        3.93576        -8.95672         0.74003
   C       -2.47812        -6.34870        -0.74944
   C       -3.49575        -7.12318        -1.35828
   N       -4.57049        -6.39615        -1.53912
   N       -4.32038        -5.16118        -1.07840
   C       -3.06381        -5.06831        -0.58424
   C       -3.00629         0.26670         0.82353
   C       -2.72924         1.58755         1.23919
   S       -3.54156         3.09499         1.24797
   C       -2.14691         3.87880         1.97859
   C       -2.21393         5.26659         2.24855
   C       -1.22614         5.99879         2.82451
   C       -1.27063         7.39850         3.09643
   C       -2.27097         8.24571         2.76909
   C       -2.27872         9.64880         3.06084
   C       -1.30771        10.43890         3.75290
   C       -1.78899        11.70619         3.76231
   O       -2.97718        11.77376         3.13407
   C       -3.27030        10.53882         2.71449
   C       -1.11135         2.97273         2.19442
   C       -1.43990         1.69274         1.77854
   H       -0.67219        -2.23294         1.12774
   H       -3.51892        -2.41896        -0.01947
   H        1.50737        -6.66252         0.64547
   H        1.03159       -11.79484        -1.24515
   H        4.66407       -11.43677         0.31769
   H        2.84045       -13.27539        -1.32712
   H        7.72276       -16.63837        -0.85383
   H       -3.47508        -8.15077        -1.65747
   H       -5.03686        -4.45663        -1.13060
   H       -3.93016        -0.05475         0.37870
   H       -3.13871         5.74854         1.96351
   H       -0.31575         5.49406         3.11604
   H       -0.40630         7.79967         3.60800
   H       -3.14438         7.88529         2.24403
   H       -0.38737        10.10346         4.18131
   H       -1.39747        12.61756         4.16878
   H       -4.19253        10.39885         2.18538
   H       -0.16826         3.24576         2.63008
*
