# ORCA input file
# SCF done       -174.095644582873          0.000918813079
! CAM-B3LYP def2-SVP def2/J RIJCOSX Grid4 TightSCF
%maxcore 5000
%tddft
    Mode sTDDFT
    Ethresh 5.0
    maxcore 5000
end

%pal
  nprocs 6
  end
* xyz 0 1
   C       -5.49240         0.05623        -6.82547
   C       -5.94328         0.17728        -5.48866
   C       -6.67810         1.27314        -5.11114
   C       -6.92916         2.30698        -6.03468
   C       -6.41834         2.20542        -7.35925
   C       -5.71777         1.04250        -7.73946
   N       -6.59304         3.20594        -8.24618
   C       -7.26827         4.24807        -7.84528
   C       -7.80612         4.33501        -6.54500
   N       -7.63383         3.39546        -5.65459
   C       -5.57875        -0.87545        -4.51854
   C       -4.19909        -1.17549        -4.29291
   C       -3.83827        -2.19923        -3.44971
   C       -4.82658        -2.95376        -2.79194
   C       -6.19961        -2.63746        -2.99157
   C       -6.54780        -1.58815        -3.86382
   N       -7.16660        -3.33579        -2.36029
   C       -6.78431        -4.30088        -1.56901
   C       -5.42152        -4.61106        -1.36622
   N       -4.46427        -3.95402        -1.96114
   C       -3.20121        -0.33891        -4.94680
   O       -3.47934         0.96455        -5.09238
   C       -2.50178         1.54606        -5.82134
   C       -1.54601         0.60582        -6.13082
   C       -1.99404        -0.60942        -5.56220
   C       -1.31853        -1.92615        -5.68551
   F       -2.17553        -2.91718        -5.99474
   F       -0.37931        -1.92288        -6.64068
   F       -0.69959        -2.31084        -4.55195
   C       -2.67998         2.91085        -6.22315
   C       -3.72614         3.63109        -5.78285
   C       -4.14947         4.94188        -6.22254
   C       -5.13140         5.59897        -5.46828
   C       -5.61787         6.80469        -5.92342
   C       -5.15591         7.37059        -7.11847
   C       -4.18581         6.73156        -7.85932
   C       -3.68324         5.52268        -7.40476
   C       -5.90630         8.64218        -7.35907
   C       -6.84225         8.71076        -6.14772
   O       -7.64564         9.57860        -5.90200
   N       -6.60770         7.60804        -5.37496
   C       -7.29744         7.34353        -4.13268
   C       -6.44647         7.69507        -2.91612
   C       -5.01824         9.89826        -7.42806
   C       -4.13414         9.86754        -8.67643
   O       -4.48154         9.79026        -9.82559
   N       -2.83286         9.92401        -8.24683
   C       -2.73445         9.98954        -6.86824
   C       -1.60742        10.05858        -6.08115
   C       -1.77714        10.12147        -4.68763
   C       -3.06673        10.11398        -4.14021
   C       -4.18914        10.05686        -4.95035
   C       -4.02308         9.98858        -6.31585
   C       -0.64479        10.21586        -3.79759
   C       -0.60315        10.21379        -2.41866
   C        0.77251        10.35257        -2.00340
   C        1.59540        10.44393        -3.20587
   O        2.78004        10.56916        -3.37926
   N        0.65357        10.34668        -4.23733
   C        0.78184        10.34563        -0.65223
   O       -0.46488        10.21165        -0.15921
   C       -1.38649        10.12140        -1.21001
   O       -2.56456         9.99521        -1.00219
   H       -4.95398        -0.83730        -7.10887
   H       -7.04451         1.38215        -4.10180
   H       -5.36748         0.96727        -8.75673
   H       -7.39984         5.04855        -8.56052
   H       -8.38981         5.19413        -6.24131
   H       -2.80553        -2.43447        -3.24839
   H       -7.59440        -1.37746        -4.02108
   H       -7.56605        -4.85704        -1.06920
   H       -5.12184        -5.41149        -0.70322
   H       -0.64956         0.74708        -6.69780
   H       -1.95841         3.29573        -6.92601
   H       -4.36058         3.17730        -5.03188
   H       -5.50069         5.14834        -4.56027
   H       -3.84096         7.15049        -8.79237
   H       -2.94505         5.00364        -7.99424
   H       -6.49562         8.60355        -8.28147
   H       -7.57590         6.28607        -4.10770
   H       -8.20476         7.95307        -4.14343
   H       -5.48954         7.18003        -2.95068
   H       -6.96833         7.40250        -2.00965
   H       -6.26056         8.76436        -2.87314
   H       -5.68142        10.76930        -7.45882
   H       -2.04680         9.91596        -8.87793
   H       -0.62931        10.05730        -6.53670
   H       -3.18545        10.16018        -3.07023
   H       -5.17613        10.07862        -4.51796
   H        0.92821        10.39601        -5.20536
   H        1.57803        10.42569         0.06400
*
