# ORCA input file
# SCF done       -156.597767809352          0.000786829138
! CAM-B3LYP def2-SVP def2/J RIJCOSX Grid4 TightSCF
%maxcore 5000
%tddft
    Mode sTDDFT
    Ethresh 5.0
    maxcore 5000
end

%pal
  nprocs 6
  end
* xyz 0 1
   C        4.93924        -4.43849        -9.08058
   C        4.81863        -3.33554        -9.81318
   C        4.94676        -1.96886        -9.37143
   C        4.57776        -0.87811       -10.14486
   C        4.78394         0.32637        -9.43735
   S        4.49623         1.97769        -9.99379
   C        2.76641         2.14321        -9.71329
   C        1.78049         1.20781       -10.08476
   C        0.52465         1.64500        -9.80595
   S        0.49856         3.20369        -9.08498
   C        2.24028         3.28725        -9.13078
   C        3.01154         4.29264        -8.51344
   C        2.57346         5.39514        -7.86046
   C        3.45469         6.20590        -7.09776
   S        3.03843         7.83780        -6.67274
   C        4.53245         8.08392        -5.79625
   C        4.86376         9.32756        -5.19648
   S        6.47395         9.58502        -4.57591
   C        6.09819        11.22071        -4.13215
   C        7.07047        12.06851        -3.52776
   C        8.31193        11.66570        -3.19151
   C        9.35080        12.47530        -2.60239
   C       10.50278        11.83437        -2.10261
   C       11.51166        12.56344        -1.54027
   C       11.43876        13.96539        -1.45823
   C       12.50123        14.71292        -0.88254
   C       12.44480        16.06293        -0.81457
   C       11.32036        16.77835        -1.31553
   C       11.28155        18.18019        -1.24172
   C       10.20581        18.88236        -1.72044
   C        9.13281        18.19487        -2.28783
   C        9.14942        16.82393        -2.37027
   C       10.23596        16.07493        -1.89215
   C       10.29618        14.63287        -1.96511
   C        9.27451        13.85924        -2.52363
   C        4.78812        11.53194        -4.45469
   C        4.08568        10.46664        -5.03938
   C        2.64928        10.58113        -5.43836
   C        1.98307        11.81141        -4.80069
   C        0.67060        11.96642        -5.39143
   N       -0.35939        12.03837        -5.87865
   C        2.87567        13.04561        -5.00494
   C        2.17854        14.32123        -4.54482
   F        1.67490        14.20423        -3.30626
   F        3.02937        15.36135        -4.50854
   F        1.17313        14.69091        -5.34308
   C        4.16744        12.87197        -4.20050
   C        5.30163         6.92916        -5.83275
   C        6.54568         6.74324        -5.20902
   N        7.55497         6.51687        -4.71155
   C        4.69205         5.86589        -6.56098
   C        5.25589         4.58807        -6.62625
   N        5.71019         3.53138        -6.64034
   C        5.32294         0.00622        -8.20987
   N        5.75346         0.74894        -7.16298
   C        6.27837         0.12928        -6.09906
   N        6.42674        -1.16093        -5.99048
   C        6.02558        -1.95159        -6.99649
   C        5.44259        -1.45088        -8.13555
   H        4.81773        -5.41360        -9.51984
   H        5.14915        -4.41625        -8.02687
   H        4.57616        -3.43191       -10.86549
   H        4.18819        -0.93003       -11.14607
   H        2.00167         0.25731       -10.53391
   H       -0.40343         1.14242        -9.99439
   H        4.07643         4.10420        -8.55855
   H        1.53350         5.68729        -7.90265
   H        6.75008        13.08178        -3.33403
   H        8.57140        10.62704        -3.36156
   H       10.57349        10.75821        -2.16372
   H       12.39081        12.06891        -1.15255
   H       13.35711        14.17375        -0.50253
   H       13.25508        16.62961        -0.37853
   H       12.12029        18.69824        -0.79880
   H       10.18406        19.96031        -1.66099
   H        8.28363        18.74572        -2.66507
   H        8.30206        16.32698        -2.81576
   H        8.40334        14.34856        -2.92628
   H        2.09775         9.68727        -5.13536
   H        2.57369        10.65361        -6.52959
   H        1.85215        11.64624        -3.72364
   H        3.09981        13.16920        -6.07018
   H        3.94279        12.97535        -3.13244
   H        4.86970        13.66488        -4.46712
   H        5.70077         1.77490        -7.17573
   H        6.60803         0.75068        -5.27927
   H        6.21117        -3.00416        -6.84030
*
