# ORCA input file
# SCF done       -164.862739343566          0.000899999238
! CAM-B3LYP def2-SVP def2/J RIJCOSX Grid4 TightSCF
%maxcore 5000
%tddft
    Mode sTDDFT
    Ethresh 5.0
    maxcore 5000
end

%pal
  nprocs 6
  end
* xyz 0 1
   C        4.20646         7.57124        -5.58175
   C        3.54546         7.19838        -4.48857
   C        4.10226         7.03723        -3.16085
   C        5.45271         7.13840        -2.86156
   C        5.93046         6.97248        -1.57342
   C        5.09652         6.71524        -0.48150
   C        5.70133         6.56821         0.79819
   C        5.19093         6.44923         2.06111
   C        6.02955         6.34858         3.21266
   C        5.37240         6.31482         4.39858
   C        3.96653         6.39622         4.25357
   C        3.01626         6.42099         5.25094
   C        3.18978         6.32210         6.64953
   C        2.03390         6.41341         7.35976
   C        0.86539         6.59469         6.56880
   C       -0.38518         6.83606         7.07489
   C       -1.59009         7.08893         6.38008
   S       -2.76076         8.15494         7.15305
   C       -3.78393         8.08248         5.75690
   F       -4.91805         8.77269         5.73375
   C       -3.29472         7.28151         4.76877
   C       -2.05196         6.69416         5.14006
   S       -1.35913         5.38184         4.20099
   C       -2.34791         5.50756         2.79324
   C       -3.40863         6.33308         2.62689
   C       -4.06308         6.41167         1.36102
   C       -5.19760         7.06244         0.94518
   C       -6.30579         7.91548         1.35070
   O       -6.64313         8.39303         2.40268
   N       -7.00860         8.11695         0.14254
   C       -6.45591         7.45149        -0.91970
   C       -6.94214         7.56756        -2.25862
   C       -7.46127         8.66187        -2.91082
   N       -7.57060         8.40986        -4.24008
   C       -7.13863         7.20467        -4.42316
   N       -6.74274         6.60498        -3.24873
   C       -6.46374         5.24966        -3.00783
   O       -6.54601         4.75747        -1.92191
   N       -6.10156         4.52366        -4.15095
   C       -6.83834         4.24927        -5.28520
   C       -6.05679         3.43922        -6.04923
   N       -4.86287         3.22237        -5.43249
   C       -4.91373         3.84869        -4.30435
   C       -5.33088         6.80290        -0.45705
   C       -4.20962         6.00076        -0.86107
   O       -3.84875         5.58678        -1.93511
   O       -3.47555         5.77245         0.29633
   O       -3.95056         7.14431         3.58090
   S        1.31161         6.61933         4.87448
   S        3.51491         6.46243         2.55698
   C        3.70135         6.59916        -0.75725
   N        2.83447         6.32153         0.22755
   C        1.55834         6.17539        -0.03411
   C        0.66643         5.80420         1.10969
   C        0.84158         4.31896         1.43261
   C        1.07895         6.31190        -1.36868
   C       -0.37121         6.13786        -1.70754
   C       -0.65410         6.23662        -3.19969
   N        1.90439         6.59602        -2.34165
   C        3.21735         6.74384        -2.08487
   H        3.70456         7.66577        -6.52912
   H        5.25889         7.79986        -5.58239
   H        2.48503         6.99538        -4.54196
   H        6.15854         7.34295        -3.65177
   H        6.99444         7.05447        -1.39977
   H        6.78670         6.57692         0.76444
   H        7.10095         6.31182         3.11306
   H        5.85376         6.24856         5.35848
   H        4.16060         6.18575         7.09160
   H        1.97278         6.36532         8.43261
   H       -0.44440         6.96403         8.14811
   H       -2.05629         4.85481         1.99068
   H       -7.85673         8.66032         0.09738
   H       -7.72574         9.61877        -2.50770
   H       -7.08869         6.72248        -5.37757
   H       -7.84626         4.58875        -5.40885
   H       -6.27539         3.00109        -7.00187
   H       -4.13759         3.90963        -3.56965
   H       -0.37184         6.01996         0.86387
   H        0.94980         6.39169         1.98266
   H        0.50667         3.70167         0.60154
   H        0.27494         4.05277         2.32115
   H        1.89078         4.10784         1.62068
   H       -0.94758         6.90172        -1.17678
   H       -0.71056         5.16717        -1.33815
   H       -0.35981         7.21130        -3.57870
   H       -1.71672         6.08926        -3.37473
   H       -0.09754         5.47648        -3.74049
*
