# ORCA input file
# SCF done       -160.867258011343          0.000814121571
! CAM-B3LYP def2-SVP def2/J RIJCOSX Grid4 TightSCF
%maxcore 5000
%tddft
    Mode sTDDFT
    Ethresh 5.0
    maxcore 5000
end

%pal
  nprocs 6
  end
* xyz 0 1
   O       -4.33350        12.17522         1.76612
   C       -4.02438        11.89110         3.05601
   N       -4.00800        12.94335         3.82420
   C       -4.32279        13.99283         3.00601
   C       -4.52019        13.49663         1.73761
   C       -4.40767        15.36344         3.49014
   O       -4.68043        16.31771         2.80797
   C       -3.75408        10.55746         3.46715
   S       -3.36085        10.24315         5.16568
   C       -3.21334         8.59015         4.73937
   C       -3.46911         8.40981         3.37146
   N       -3.76517         9.50990         2.69218
   C       -3.33984         6.96976         2.98899
   C       -2.97255         6.35410         4.30748
   C       -2.91188         7.33274         5.30541
   S       -2.49407         6.68006         6.83439
   C       -2.38989         5.07330         6.13602
   C       -2.67802         5.08208         4.77783
   C       -2.03181         3.99342         6.97858
   C       -1.87240         2.70641         6.57977
   C       -1.48186         1.65617         7.43954
   S       -1.13667         1.92125         9.12821
   C       -0.74883         0.23941         9.37537
   C       -0.86129        -0.46874         8.18476
   C       -1.27941         0.32365         7.09951
   S       -1.60968        -0.23922         5.46605
   C       -0.08476        -1.18713         5.06076
   C        0.25015        -0.99270         3.59544
   S       -0.56710        -2.20819         8.09920
   C        1.24258        -2.27929         8.45875
   C        1.56002        -3.41277         9.41255
   C       -0.41548        -0.26659        10.64981
   C       -0.30634         0.49310        11.77357
   C        0.01300        -0.02608        13.04336
   C        0.08762         0.75195        14.16103
   C        0.41179         0.29220        15.44939
   S        0.40566         1.41304        16.80242
   C        0.87916         0.19295        17.95959
   C        1.03695        -1.04146        17.29981
   C        0.77003        -0.96638        15.91201
   S        0.97912        -2.50089        15.13868
   C        1.42274        -3.23581        16.67256
   C        1.76760        -4.65177        16.78640
   O        2.07796        -5.13548        17.85477
   C        1.70612        -5.44315        15.49768
   C        2.11806        -6.89396        15.69785
   C        1.40414        -2.33808        17.70569
   C        1.06249         0.43226        19.31742
   C        0.89694         1.62538        19.98684
   C        1.08950         1.82566        21.37479
   C        0.85059         3.09751        21.79733
   C        0.45392         3.97679        20.76352
   S        0.40224         3.12336        19.23022
   C        0.13339         5.31265        20.86001
   C        0.13041         6.11687        22.03322
   C       -0.23643         7.40164        21.82690
   C       -0.55372         7.71486        20.46349
   S       -0.34936         6.26136        19.47133
   C       -0.94751         8.89345        19.96126
   H       -4.77867        13.96660         0.81099
   H       -4.19371        15.44940         4.56965
   H       -2.56892         6.81901         2.23144
   H       -4.27570         6.57115         2.59339
   H       -2.67133         4.19332         4.17445
   H       -1.86873         4.23698         8.02099
   H       -2.03777         2.42294         5.55023
   H       -0.27095        -2.23557         5.28881
   H        0.70617        -0.80066         5.70128
   H       -0.56718        -1.34391         2.97006
   H        1.14752        -1.55477         3.34430
   H        0.42304         0.05920         3.37907
   H        1.52560        -1.31426         8.87446
   H        1.74620        -2.42681         7.50268
   H        1.06642        -3.26475        10.36981
   H        2.63406        -3.46261         9.58049
   H        1.22728        -4.36087         8.99802
   H       -0.26855        -1.33606        10.71658
   H       -0.47020         1.56090        11.69540
   H        0.20032        -1.08866        13.12011
   H       -0.12064         1.81042        14.07666
   H        2.35458        -4.95511        14.76489
   H        0.68330        -5.38343        15.11499
   H        3.14381        -6.94661        16.05362
   H        2.03878        -7.44548        14.76450
   H        1.48039        -7.36390        16.44205
   H        1.65109        -2.62686        18.71117
   H        1.36500        -0.41933        19.91291
   H        1.39801         1.01942        22.01686
   H        0.94670         3.42320        22.81731
   H        0.40099         5.70988        22.99129
   H       -0.29853         8.15510        22.59185
   H       -1.06052         9.75189        20.59954
   H       -1.16227         9.01912        18.91599
*
