# ORCA input file
# SCF done       -108.258473667933          0.000858852371
! CAM-B3LYP def2-SVP def2/J RIJCOSX Grid4 TightSCF
%maxcore 5000
%tddft
    Mode sTDDFT
    Ethresh 5.0
    maxcore 5000
end

%pal
  nprocs 6
  end
* xyz 0 1
   O       -3.12286         0.40623        -1.71611
   C       -1.91850         0.80466        -1.22619
   N       -0.94520         0.00303        -1.54864
   C       -1.52498        -0.98808        -2.29554
   C       -2.87014        -0.72146        -2.38836
   C       -0.76084        -2.09553        -2.85116
   O       -1.22496        -2.98792        -3.51364
   C       -1.81140         1.99282        -0.44864
   S       -3.20766         2.94919        -0.07506
   C       -2.21918         4.08211         0.80740
   C       -0.89031         3.70857         0.79261
   C       -0.66106         2.52910         0.08557
   C       -2.77638         5.19471         1.41642
   C       -3.28244         6.16737         1.93951
   C       -3.84141         7.28976         2.53782
   C       -3.09295         8.28243         3.07229
   C       -3.61392         9.45221         3.69124
   S       -2.51349        10.68547         4.24282
   C       -3.83605        11.67414         4.79997
   C       -5.04849        11.05525         4.56650
   C       -4.92302         9.81528         3.94556
   C       -3.61288        12.91302         5.37397
   C       -3.38843        14.00342         5.86146
   C       -3.17461        15.26141         6.40868
   C       -1.94369        15.81512         6.50982
   C       -1.67597        17.11124         7.03167
   S       -0.03749        17.69928         7.04607
   C       -0.54458        19.21540         7.74172
   C       -1.91015        19.23337         7.94610
   C       -2.54117        18.05732         7.54948
   C        0.36811        20.22080         8.00720
   C        1.18860        21.09199         8.21666
   C        2.12947        22.08751         8.44774
   C        1.82283        23.31782         8.90958
   C        2.80386        24.33240         9.12513
   N        2.57658        25.54006         9.55480
   C        3.79882        26.15308         9.59991
   C        4.74426        25.24701         9.17799
   O        4.12679        24.10205         8.87822
   C        3.97077        27.53228        10.03172
   O        5.02674        28.10954        10.08557
   H       -3.67733        -1.23064        -2.87263
   H        0.31327        -2.04149        -2.60125
   H       -0.12517         4.28097         1.28497
   H        0.29818         2.06442        -0.04663
   H       -4.92203         7.33386         2.55397
   H       -2.01444         8.20458         3.02709
   H       -5.98610        11.50510         4.84121
   H       -5.76471         9.19672         3.69086
   H       -4.05515        15.79482         6.74191
   H       -1.08766        15.25230         6.16152
   H       -2.41727        20.08232         8.36917
   H       -3.60113        17.90009         7.63652
   H        3.15908        21.83224         8.22715
   H        0.80796        23.60378         9.13685
   H        5.80665        25.31228         9.06260
   H        3.01840        28.01466        10.31361
*
