# ORCA input file
# SCF done       -151.387381426798          0.000883927739
! CAM-B3LYP def2-SVP def2/J RIJCOSX Grid4 TightSCF
%maxcore 5000
%tddft
    Mode sTDDFT
    Ethresh 5.0
    maxcore 5000
end

%pal
  nprocs 6
  end
* xyz 0 1
   O       -2.33168         2.94638         2.14824
   C       -1.91870         3.91556         1.29191
   N       -2.72036         4.08388         0.28240
   C       -3.72828         3.17847         0.46694
   C       -3.46964         2.48420         1.62709
   C       -4.84126         3.04613        -0.46618
   O       -5.74759         2.26392        -0.34449
   C       -0.70257         4.62238         1.55129
   O       -0.28520         5.56734         0.69638
   C        0.88291         6.06566         1.15500
   C        1.22804         5.43190         2.33560
   C        0.20626         4.50174         2.59162
   C        0.12290         3.57274         3.75044
   F       -0.97915         3.76804         4.49564
   F        0.10458         2.27971         3.38099
   F        1.16823         3.71369         4.57766
   C        1.58067         7.08429         0.44070
   C        1.11487         7.61741        -0.71020
   C        1.74733         8.58956        -1.53538
   S        1.14997         8.69774        -3.16833
   C        2.37406         9.84420        -3.59137
   C        3.19350        10.13578        -2.50472
   C        2.81365         9.45719        -1.33338
   C        3.44725         9.74231         0.00163
   C        2.40532        10.00145         1.05593
   C        2.52891         9.66458         2.32563
   C        4.34655        10.98785        -0.08587
   C        5.23799        10.91872        -1.31593
   C        4.37994        11.04382        -2.56997
   C        2.46513        10.39051        -4.90369
   O        3.44342        11.27995        -5.15701
   C        3.35869        11.67847        -6.45140
   C        2.29180        11.03706        -7.05179
   C        1.71853        10.21139        -6.06717
   C        0.54009         9.33527        -6.28720
   F       -0.50298         9.64033        -5.49072
   F        0.08485         9.42460        -7.54525
   F        0.80245         8.03062        -6.07740
   C        4.32176        12.59627        -6.94523
   C        5.33466        13.03983        -6.15096
   C        6.36962        13.91456        -6.51708
   C        7.37649        14.25427        -5.65034
   C        8.48757        15.10281        -5.89150
   C        9.33835        15.22875        -4.83922
   C        8.95370        14.48685        -3.69389
   S        7.45817        13.62884        -4.00769
   C        9.60006        14.38866        -2.48595
   C       10.82054        15.01096        -2.09999
   C       11.22354        14.71664        -0.84469
   C       10.34748        13.83165        -0.13086
   S        8.97765        13.40943        -1.17170
   C       10.48889        13.36605         1.11707
   H       -3.99311         1.69881         2.13233
   H       -4.77327         3.74939        -1.31382
   H        2.09448         5.60893         2.93795
   H        2.51704         7.38499         0.87555
   H        0.18436         7.22583        -1.10184
   H        4.07297         8.89154         0.29675
   H        1.53904        10.55366         0.71802
   H        3.38603         9.12135         2.69082
   H        1.77986         9.91402         3.05668
   H        4.94347        11.05406         0.82460
   H        3.72155        11.88176        -0.14220
   H        5.77173         9.96619        -1.32644
   H        5.97831        11.71985        -1.29947
   H        4.97550        10.80342        -3.45233
   H        4.03773        12.07682        -2.68433
   H        1.96156        11.13832        -8.06469
   H        4.22544        12.90780        -7.97351
   H        5.36318        12.67504        -5.13182
   H        6.38958        14.32728        -7.51617
   H        8.61960        15.58903        -6.84218
   H       10.23028        15.82935        -4.85101
   H       11.35674        15.65488        -2.77438
   H       12.11948        15.09060        -0.38187
   H       11.33690        13.64882         1.71532
   H        9.76743        12.70376         1.55916
*
