# ORCA input file
# SCF done       -156.908602732083          0.000772199758
! CAM-B3LYP def2-SVP def2/J RIJCOSX Grid4 TightSCF
%maxcore 5000
%tddft
    Mode sTDDFT
    Ethresh 5.0
    maxcore 5000
end

%pal
  nprocs 6
  end
* xyz 0 1
   O       -0.71457         7.46365        -1.56766
   C        0.34914         6.63414        -1.36399
   N        1.02241         6.42795        -2.45586
   C        0.38989         7.14576        -3.43594
   C       -0.68485         7.78021        -2.86248
   C        0.85605         7.16477        -4.81405
   O        0.33643         7.78192        -5.70830
   C        0.57183         6.12201        -0.02350
   C       -0.31632         6.52596         0.95460
   C       -0.19578         6.09304         2.28305
   C        0.84819         5.23385         2.60033
   C        1.77104         4.79766         1.64633
   C        1.64188         5.24335         0.30316
   C        2.57515         4.80151        -0.67102
   C        3.58465         3.96029        -0.34175
   C        3.75480         3.48712         0.98747
   C        2.85293         3.90175         1.99515
   C        3.06078         3.41463         3.29573
   C        4.09944         2.56303         3.58415
   C        4.98290         2.15626         2.58388
   C        4.80954         2.61517         1.30423
   C       -1.16202         6.56003         3.24719
   C       -1.18198         6.29455         4.56854
   C       -2.17343         6.79075         5.45774
   S       -3.48840         7.79574         4.92318
   C       -4.13299         7.90635         6.52715
   C       -3.35590         7.18466         7.43307
   C       -2.25264         6.56666         6.82497
   S       -0.97988         5.66725         7.64568
   C       -1.41849         5.48359         9.34829
   O       -0.58705         5.01607        10.08177
   C       -2.77429         5.84700         9.88483
   O       -3.13189         5.40237        10.94749
   S       -3.84123         7.02604         9.11042
   C       -5.29778         8.64653         6.85192
   O       -5.62021         8.73338         8.15661
   C       -6.76266         9.45544         8.28805
   C       -7.18818         9.84936         7.02883
   C       -6.25509         9.33746         6.11153
   C       -6.31363         9.50883         4.63790
   F       -6.35413         8.33668         3.97336
   F       -7.39761        10.19478         4.25461
   F       -5.25106        10.17559         4.14269
   C       -7.28445         9.65400         9.58989
   C       -6.59984         9.16313        10.66459
   C       -6.95002         9.17799        12.01858
   C       -6.12156         8.60382        12.95836
   C       -6.33888         8.42690        14.34677
   C       -5.33952         7.75975        14.99019
   C       -4.26532         7.38712        14.14888
   S       -4.56778         7.92074        12.51292
   C       -3.11656         6.68566        14.44418
   C       -2.73752         6.10145        15.68714
   C       -1.57084         5.42191        15.64216
   C       -0.93830         5.42120        14.35234
   S       -1.91531         6.36776        13.22110
   C        0.19782         4.81380        13.98545
   H       -1.43622         8.43169        -3.25887
   H        1.75587         6.54364        -4.97128
   H       -1.12438         7.19318         0.69507
   H        0.93835         4.89494         3.61801
   H        2.45660         5.15400        -1.68133
   H        4.28707         3.62981        -1.09335
   H        2.40271         3.70332         4.09961
   H        4.23382         2.20451         4.59404
   H        5.79527         1.48597         2.82199
   H        5.48467         2.31327         0.51635
   H       -1.94594         7.19455         2.85047
   H       -0.42617         5.67710         5.03341
   H       -8.05568        10.42986         6.79260
   H       -8.21802        10.18460         9.68580
   H       -5.66021         8.67325        10.44210
   H       -7.88688         9.61094        12.33901
   H       -7.23612         8.78196        14.82296
   H       -5.34621         7.52623        16.04021
   H       -3.35483         6.19805        16.56298
   H       -1.12803         4.90001        16.47214
   H        0.77382         4.24332        14.69345
   H        0.55583         4.86519        12.97296
*
