# ORCA input file
# SCF done       -156.378570898980          0.000535138328
! CAM-B3LYP def2-SVP def2/J RIJCOSX Grid4 TightSCF
%maxcore 5000
%tddft
    Mode sTDDFT
    Ethresh 5.0
    maxcore 5000
end

%pal
  nprocs 6
  end
* xyz 0 1
   N        2.01150        -0.28117         2.75222
   C        2.95122        -0.24840         2.09235
   C        4.11241        -0.20302         1.31412
   C        4.93593         0.86583         1.16111
   C        6.03279         0.49175         0.27630
   C        7.01720         1.40367        -0.21441
   S        7.60339         2.65322         0.88340
   C        8.63974         3.21706        -0.34642
   C        8.51432         2.52128        -1.51617
   C        7.58823         1.46974        -1.48326
   C        7.19199         0.66926        -2.68622
   C        5.71609         0.26315        -2.67919
   O        4.78390         0.94308        -2.37186
   O        5.58912        -0.99960        -3.11703
   C        6.83014        -1.51095        -3.59496
   C        7.91010        -0.67234        -2.88868
   C        9.24908        -0.62559        -3.61538
   C        9.11491        -0.34245        -5.10528
   C        8.18268        -1.32200        -5.80719
   C        8.60852        -2.78830        -5.86726
   C        7.27531        -3.50676        -5.98845
   O        7.07309        -4.62924        -6.34425
   O        6.28080        -2.67327        -5.62734
   C        6.80539        -1.44273        -5.13853
   C        9.53222         3.38846        -2.22186
   C        9.66992         4.17106        -0.87810
   C        5.89056        -0.83399        -0.02803
   C        4.68204        -1.32705         0.55030
   C        4.12975        -2.55815         0.31586
   C        2.80417        -3.01682         0.61335
   C        2.59386        -4.20195        -0.03400
   C        1.39721        -5.00410        -0.12844
   C        0.93162        -5.53634        -1.32327
   C        1.35139        -5.12329        -2.69017
   C        0.18766        -4.40599        -3.40766
   O       -0.59251        -3.65202        -2.91278
   O        0.15892        -4.76845        -4.69400
   C        1.27699        -5.58434        -5.02710
   C        1.68922        -6.23262        -3.69481
   C        3.12114        -6.75237        -3.69246
   C        4.12760        -5.69406        -4.12652
   C        3.81537        -5.12045        -5.50157
   C        4.04660        -6.05110        -6.68818
   C        3.04607        -5.54695        -7.71112
   O        3.00464        -5.79454        -8.87859
   O        2.15075        -4.73802        -7.10914
   C        2.34987        -4.69303        -5.70256
   S       -0.47836        -6.55339        -1.14046
   C       -0.43229        -6.27185         0.55089
   C        0.57179        -5.43845         0.93060
   C        0.20321        -5.53867         2.39141
   C       -0.94636        -6.49681         1.94396
   C        3.82875        -4.59335        -0.68477
   C        4.76165        -3.62424        -0.48193
   C        6.06545        -3.68657        -0.96712
   N        7.12082        -3.77964        -1.41910
   H        4.80365         1.84621         1.58030
   H        7.33959         1.30798        -3.56582
   H        6.88417        -2.56337        -3.29785
   H        8.08933        -1.11808        -1.90531
   H        9.75052        -1.58340        -3.46862
   H        9.87126         0.14075        -3.15069
   H       10.09873        -0.38944        -5.57419
   H        8.72841         0.66763        -5.25773
   H        8.02370        -0.97332        -6.83418
   H        9.08903        -3.11961        -4.94514
   H        9.25815        -3.03253        -6.70458
   H        6.11201        -0.65338        -5.44378
   H        9.13686         3.97791        -3.04627
   H       10.43715         2.87273        -2.53728
   H        9.35472         5.21184        -0.91832
   H       10.64797         4.10594        -0.40499
   H        6.55404        -1.43500        -0.61164
   H        2.08105        -2.46232         1.17819
   H        2.16872        -4.39875        -2.60890
   H        0.92997        -6.31855        -5.76042
   H        1.00832        -7.07125        -3.50312
   H        3.17529        -7.60790        -4.36854
   H        3.36545        -7.11950        -2.69386
   H        5.12958        -6.12485        -4.15237
   H        4.14720        -4.87243        -3.40817
   H        4.44042        -4.23444        -5.64844
   H        3.81824        -7.09386        -6.46188
   H        5.06261        -5.99518        -7.07417
   H        2.17431        -3.65957        -5.38598
   H       -0.13296        -4.60596         2.83780
   H        0.95782        -6.00116         3.02411
   H       -1.95251        -6.12595         2.12913
   H       -0.86008        -7.51852         2.30983
   H        3.98088        -5.53090        -1.18545
*
