# ORCA input file
# SCF done       -170.805497003162          0.000361865076
! CAM-B3LYP def2-SVP def2/J RIJCOSX Grid4 TightSCF
%maxcore 5000
%tddft
    Mode sTDDFT
    Ethresh 5.0
    maxcore 5000
end

%pal
  nprocs 6
  end
* xyz 0 1
   C       -1.78677         4.44185         0.59740
   C       -0.46374         4.05283         0.71392
   F        0.47040         4.97868         0.93730
   C       -0.09907         2.71407         0.60693
   F        1.18267         2.37108         0.69711
   C       -1.06435         1.73395         0.35843
   C       -2.39772         2.13732         0.24195
   C       -2.75023         3.47570         0.36585
   F       -4.03128         3.83589         0.26478
   F       -3.35452         1.21957         0.06084
   C       -0.69898         0.32471         0.27484
   N        0.06684        -0.23846         1.17164
   C        0.12794        -1.55417         0.83322
   C       -0.68521        -1.82607        -0.36172
   C       -0.60740        -3.25338        -0.73157
   O       -1.16212        -3.82431        -1.63995
   C        0.30964        -3.79476         0.29169
   C        0.72445        -2.71745         1.23160
   N        1.57894        -3.20635         2.16568
   C        1.72452        -4.46985         1.87156
   C        0.96533        -4.90368         0.70365
   C       -1.19616        -0.61539        -0.75846
   C       -1.94803        -0.25870        -1.91087
   C       -2.63298        -1.15347        -2.66542
   C       -3.33277        -0.74433        -3.83213
   N       -3.12351         0.43637        -4.39805
   C       -3.91864         0.47670        -5.48213
   C       -4.72087        -0.75263        -5.60651
   C       -5.60283        -0.67331        -6.78697
   O       -6.43039        -1.47441        -7.16379
   C       -5.24159         0.62751        -7.37319
   C       -4.22066         1.30226        -6.53820
   N       -3.88878         2.50302        -7.06827
   C       -4.61386         2.61091        -8.15489
   C       -5.48070         1.47427        -8.40589
   C       -4.35002        -1.55371        -4.55256
   C       -4.84209        -2.82096        -4.14199
   C       -5.84500        -3.45864        -4.80157
   C       -6.41181        -4.67154        -4.33646
   N       -6.00910        -5.26876        -3.22108
   C       -6.80632        -6.33860        -3.06635
   C       -7.79797        -6.43404        -4.15763
   C       -8.66471        -7.60987        -3.96144
   O       -9.58081        -7.99599        -4.65301
   C       -8.14116        -8.19226        -2.71246
   C       -7.01085        -7.38584        -2.20197
   N       -6.52937        -7.91558        -1.05098
   C       -7.27029        -8.97192        -0.82279
   C       -8.29584        -9.20404        -1.82127
   C       -7.55013        -5.37398        -4.98642
   C       -8.18357        -4.95671        -6.19901
   C       -9.32154        -5.51458        -6.65256
   C      -10.01343        -5.11858        -7.86452
   C       -9.37766        -4.58240        -8.99191
   F       -8.04667        -4.44174        -9.01091
   C      -10.09896        -4.22919       -10.12511
   F       -9.45868        -3.72482       -11.18749
   C      -11.47176        -4.38982       -10.18047
   C      -12.11614        -4.92613        -9.07938
   C      -11.40268        -5.29090        -7.94675
   F      -12.05840        -5.79359        -6.89483
   F      -13.44391        -5.09134        -9.11567
   H       -2.06374         5.47947         0.69079
   H        2.35848        -5.09913         2.47188
   H        0.95777        -5.89709         0.30141
   H       -1.97904         0.78424        -2.19746
   H       -2.66438        -2.19730        -2.38705
   H       -4.53750         3.48821        -8.77346
   H       -6.14647         1.36972        -9.23935
   H       -4.42831        -3.28249        -3.25658
   H       -6.26062        -3.02032        -5.69792
   H       -7.09380        -9.58144         0.04653
   H       -9.00153       -10.01085        -1.81533
   H       -7.71904        -4.14105        -6.73333
   H       -9.80776        -6.29163        -6.07574
   H      -12.02509        -4.10921       -11.06102
*
