# ORCA input file
# SCF done       -157.510300418310          0.000628577527
! CAM-B3LYP def2-SVP def2/J RIJCOSX Grid4 TightSCF
%maxcore 5000
%tddft
    Mode sTDDFT
    Ethresh 5.0
    maxcore 5000
end

%pal
  nprocs 6
  end
* xyz 0 1
   C       -4.79789        -1.78866        -2.80195
   C       -4.53847        -1.75186        -4.16462
   C       -4.39464        -2.89452        -4.95886
   N       -4.24952        -3.80377        -5.65218
   C       -4.38147        -0.57430        -4.91331
   N       -4.25211         0.34267        -5.59630
   C       -5.05533        -3.01417        -2.03684
   C       -5.30113        -2.64907        -0.69364
   C       -5.63599        -3.55900         0.27472
   C       -5.71134        -4.90785        -0.09774
   C       -5.42937        -5.26801        -1.43167
   C       -5.11219        -4.33813        -2.41754
   S       -5.51939        -6.98965        -1.66233
   C       -5.94216        -7.19327         0.01640
   C       -6.01581        -6.03649         0.71346
  Br       -6.20593        -8.91817         0.71100
   C       -5.15805        -1.17976        -0.56450
   O       -5.14098        -0.55731         0.48333
   C       -4.94581        -0.68013        -1.92876
   C       -4.75589         0.68585        -2.23893
   C       -5.35257         1.74190        -1.59775
   C       -6.49713         1.65696        -0.78090
   C       -6.97825         2.57885         0.14716
   C       -8.09094         2.14838         0.85202
   C       -8.52424         0.88476         0.46788
   S       -7.56971         0.29501        -0.86440
   C       -9.42402        -0.02503         1.05225
   C      -10.35670         0.07617         2.07831
   C      -10.95530        -1.13001         2.40150
   C      -10.51458        -2.21707         1.64248
   S       -9.31542        -1.67072         0.50085
   C      -10.88556        -3.55759         1.79564
   C      -10.48248        -4.66959         1.09389
   S      -11.00842        -6.25432         1.70371
   C      -10.17340        -7.18213         0.46969
   C       -9.54744        -6.27213        -0.42120
   C       -9.70757        -4.91116        -0.07110
   N       -9.08114        -4.20625        -1.03822
   N       -8.54326        -5.00277        -1.96291
   C       -8.80906        -6.24363        -1.62323
   C      -10.16476        -8.55963         0.47565
   C       -9.42392        -9.29285        -0.44671
   C       -9.28993       -10.65847        -0.50598
   C       -8.43866       -11.26818        -1.43248
   C       -8.18412       -12.63266        -1.61130
   C       -7.26770       -12.90792        -2.59927
   C       -6.76346       -11.76538        -3.23299
   S       -7.48440       -10.32978        -2.55502
   C       -5.82131       -11.67870        -4.25725
   C       -5.18005       -12.74120        -4.92272
   C       -4.30693       -12.33362        -5.89010
   C       -4.21753       -10.92996        -6.02897
   S       -5.28623       -10.14171        -4.88122
   C       -3.42648       -10.24446        -6.91757
   C       -3.34974        -8.84949        -7.03396
   O       -4.07315        -8.00852        -6.24445
   C       -3.77571        -6.75761        -6.60157
   C       -2.86283        -6.73356        -7.61981
   C       -2.57576        -8.07959        -7.91299
   O       -1.74024        -8.58848        -8.83654
   H       -5.83196        -3.24694         1.28877
   H       -4.92129        -4.66530        -3.42486
   H       -6.26149        -5.97870         1.75853
   H       -4.04672         0.92002        -3.02370
   H       -4.94954         2.73470        -1.75064
   H       -6.47428         3.51006         0.33755
   H       -8.55208         2.70443         1.64906
   H      -10.58014         1.00820         2.56546
   H      -11.69425        -1.24046         3.17575
   H      -11.56275        -3.74880         2.61963
   H       -8.98817        -3.21010        -1.14446
   H       -8.47808        -7.04014        -2.25807
   H      -10.72077        -9.07579         1.24518
   H       -8.86680        -8.72913        -1.17929
   H       -9.82516       -11.29631         0.18308
   H       -8.67128       -13.38349        -1.01479
   H       -6.95327       -13.90065        -2.86657
   H       -5.37668       -13.76975        -4.67975
   H       -3.72598       -12.99610        -6.50684
   H       -2.79937       -10.80422        -7.59601
   H       -4.24987        -5.94550        -6.08308
   H       -2.45650        -5.86153        -8.08990
   H       -1.31810        -7.86958        -9.32246
*
