# ORCA input file
# SCF done       -217.886458763705          0.000638223922
! CAM-B3LYP def2-SVP def2/J RIJCOSX Grid4 TightSCF
%maxcore 5000
%tddft
    Mode sTDDFT
    Ethresh 5.0
    maxcore 5000
end

%pal
  nprocs 6
  end
* xyz 0 1
   C       -7.37885         9.53901         2.63909
   C       -7.73428        10.66587         1.94620
   C       -6.81260        11.56471         1.36894
   N       -6.11184        12.32864         0.87604
   C       -9.05894        11.09783         1.72382
   N      -10.10618        11.51472         1.50393
   C       -6.01694         9.10134         2.91136
   C       -6.06113         7.94848         3.73346
   C       -4.92851         7.29672         4.15754
   C       -3.69119         7.80741         3.75267
   C       -3.65601         8.95986         2.93062
   C       -4.80080         9.61801         2.50108
   S       -2.02555         9.41921         2.54382
   C       -1.42176         8.07743         3.47906
   C       -2.38911         7.32237         4.05233
  Br        0.42813         7.79804         3.60763
   C       -7.46592         7.60263         4.02783
   O       -7.85248         6.67763         4.70672
   C       -8.28213         8.59069         3.27304
   C       -9.61751         8.48737         3.06156
   C      -10.51742         7.60539         3.75571
   C      -10.50538         7.54070         5.12253
   S      -11.80977         6.67331         5.80098
   C      -12.40273         6.30290         4.20788
   C      -11.60785         6.84358         3.18782
   C      -11.87698         6.49035         1.84313
   C      -10.86464         6.85141         0.78542
   C       -9.64293         5.93425         0.89161
   C      -12.99216         5.72228         1.53843
   C      -13.26979         5.28882         0.12199
   C      -13.99163         6.37708        -0.67718
   C      -13.87608         5.30749         2.56461
   C      -15.09744         4.53990         2.49742
   C      -15.56142         4.21882         3.73577
   S      -14.61524         4.82566         5.03939
   C      -13.52669         5.55404         3.90276
   C      -15.84970         4.17808         1.30435
   C      -16.47995         3.01150         1.14508
   C      -17.21037         2.68619        -0.07739
   C      -16.60855         2.86760        -1.28355
   S      -17.55562         2.39235        -2.64024
   C      -18.85120         1.95678        -1.57136
   C      -18.54400         2.15382        -0.21645
   C      -19.51481         1.82694         0.76225
   C      -19.15942         2.03988         2.21129
   C      -18.54856         0.78988         2.84805
   C      -20.75378         1.33065         0.38218
   C      -21.69949         0.73162         1.38894
   C      -21.72760        -0.79152         1.23443
   C      -21.09703         1.25196        -0.99258
   C      -22.32934         0.87017        -1.64188
   C      -22.17241         0.74366        -2.99035
   S      -20.61340         1.16717        -3.57619
   C      -20.10256         1.50176        -1.95144
   C      -23.67974         0.76096        -1.11216
   C      -24.26992         1.68751        -0.33888
   C      -25.66302         1.67966        -0.00679
   S      -26.72423         0.57462        -0.85025
   C      -28.15598         1.30592        -0.18857
   C      -27.80838         2.29266         0.71653
   C      -26.40302         2.50024         0.82870
   O      -25.99223         3.47393         1.68507
   C      -24.78523         3.34362         2.41345
   C      -24.69688         2.05308         3.22023
   O      -28.69197         3.04962         1.43879
   C      -29.41926         2.36009         2.44535
   C      -28.53119         1.89332         3.59241
   C      -29.42850         0.87784        -0.66071
   C      -30.57144         1.60180        -0.56295
   C      -31.81426         1.17402        -1.08864
   C      -32.93934         1.93316        -1.04745
   C      -34.19438         1.55894        -1.57283
   S      -34.50248         0.01938        -2.34834
   C      -36.17872         0.36245        -2.68047
   C      -36.48953         1.63214        -2.20663
   C      -35.37772         2.28323        -1.59393
   N      -35.82407         3.49800        -1.18619
   N      -37.12313         3.66478        -1.49312
   C      -37.54130         2.58240        -2.09366
   C      -36.97254        -0.61954        -3.34549
   C      -38.26540        -0.48518        -3.65054
   H       -4.99610         6.42041         4.78299
   H       -4.72222        10.48862         1.87176
   H       -2.19412         6.45824         4.66071
   H      -10.07772         9.14266         2.33378
   H       -9.81692         8.04008         5.77558
   H      -10.55302         7.88729         0.89532
   H      -11.28829         6.76070        -0.21123
   H       -9.19262         5.99592         1.87955
   H       -8.89544         6.21326         0.15191
   H       -9.93177         4.89979         0.71818
   H      -13.87943         4.38529         0.14553
   H      -12.33761         5.02659        -0.37962
   H      -14.90698         6.68252        -0.17546
   H      -14.24457         6.01237        -1.67059
   H      -13.36815         7.26146        -0.78332
   H      -16.45890         3.67763         3.96404
   H      -15.95425         4.93831         0.54437
   H      -16.38548         2.23794         1.89364
   H      -15.61295         3.22901        -1.45369
   H      -20.04106         2.34385         2.77821
   H      -18.44902         2.86578         2.27032
   H      -18.19012         1.01018         3.85191
   H      -17.71525         0.42439         2.25190
   H      -19.28385        -0.00738         2.91530
   H      -22.70794         1.10863         1.24432
   H      -21.39683         0.97295         2.40481
   H      -22.11990        -1.06971         0.25978
   H      -22.36182        -1.23383         1.99964
   H      -20.72656        -1.20655         1.32937
   H      -22.93455         0.47515        -3.69631
   H      -24.28063        -0.04887        -1.50734
   H      -23.69968         2.54756        -0.01758
   H      -24.80014         4.20612         3.08592
   H      -23.91207         3.44366         1.75878
   H      -25.51490         1.99685         3.93371
   H      -23.75588         2.02866         3.76244
   H      -24.74628         1.18533         2.56553
   H      -29.95597         1.50408         2.01510
   H      -30.14701         3.09282         2.80253
   H      -27.83502         1.13243         3.24446
   H      -29.14442         1.47058         4.38373
   H      -27.96804         2.73543         3.98730
   H      -29.44108        -0.06470        -1.19333
   H      -30.54196         2.57556        -0.09392
   H      -31.85730         0.19773        -1.55472
   H      -32.89781         2.91315        -0.58718
   H      -35.32244         4.23452        -0.72078
   H      -38.55804         2.51368        -2.42213
   H      -36.44869        -1.53069        -3.60475
   H      -38.81785         0.40414        -3.40625
   H      -38.80358        -1.26892        -4.15273
*
