# ORCA input file
# SCF done       -182.274322414630          0.000491045506
! CAM-B3LYP def2-SVP def2/J RIJCOSX Grid4 TightSCF
%maxcore 5000
%tddft
    Mode sTDDFT
    Ethresh 5.0
    maxcore 5000
end

%pal
  nprocs 6
  end
* xyz 0 1
   C        0.26291        -1.09584         0.17367
   C       -0.16891        -2.36834         0.47841
   C        0.69007        -3.44345         0.77654
   N        1.33282        -4.36277         1.02631
   C       -1.51112        -2.78959         0.54038
   N       -2.57389        -3.22182         0.61519
   C        1.66366        -0.67608         0.12721
   C        1.71232         0.69647        -0.21588
   C        2.88986         1.39062        -0.33773
   C        4.08313         0.69590        -0.10926
   C        4.02585        -0.67442         0.23269
   C        2.83180        -1.37673         0.35571
   S        5.61384        -1.33969         0.47257
   C        6.32190         0.21301         0.11443
   C        5.41881         1.18040        -0.17008
  Br        8.18749         0.41061         0.15085
   C        0.33497         1.19968        -0.40258
   O        0.02413         2.33695        -0.70323
   C       -0.54847         0.04593        -0.15018
   C       -1.93094         0.08770        -0.22570
   C       -2.66688         1.21801        -0.54739
   C       -4.05161         1.23789        -0.61946
   C       -4.85363         2.34810        -0.94200
   C       -6.19779         2.08366        -0.94052
   C       -6.50743         0.75329        -0.61590
   S       -5.05457        -0.16179        -0.31102
   C       -7.77595         0.17612        -0.52991
   C       -9.01315         0.79738        -0.75044
   C      -10.08610        -0.04324        -0.58549
   C       -9.73494        -1.35229        -0.23002
   S       -7.99817        -1.50032        -0.10855
   C      -10.61501        -2.40791         0.00463
   C      -10.25009        -3.68468         0.35676
   C      -11.15825        -4.71652         0.59339
   C      -10.86690        -6.03754         0.96031
   C      -11.97543        -6.82940         1.13308
   C      -13.18566        -6.15748         0.90732
   S      -12.88690        -4.49510         0.46642
   C      -14.48356        -6.65112         1.00311
   C      -14.90466        -7.94584         1.35520
   C      -16.26236        -8.09806         1.36839
   C      -16.98032        -6.92883         1.02581
   S      -15.86125        -5.62693         0.68016
   C      -18.35046        -6.81028         0.97555
   C      -19.09583        -5.67308         0.64238
   C      -20.49790        -5.60317         0.63049
   C      -21.27806        -6.71607         0.96644
   N      -21.86914        -7.65887         1.24910
   C      -20.97732        -4.32632         0.25380
   C      -19.92718        -3.45173        -0.01748
   S      -18.36372        -4.14474         0.18161
   S      -20.40071        -1.85545        -0.49612
   C      -22.05261        -2.35730        -0.32966
   C      -22.23342        -3.67521         0.07102
   C      -23.61493        -3.99348         0.18703
   C      -24.15093        -5.23210         0.57561
   N      -24.62745        -6.22665         0.89115
   C      -24.42768        -2.91379        -0.12956
   S      -23.52413        -1.49253        -0.57402
   C      -25.85182        -2.89039        -0.11332
   O      -26.49775        -4.03834         0.25892
   C      -27.80444        -3.75672         0.19362
   C      -29.07960        -4.33556         0.39959
   C      -29.42054        -5.70902         0.84045
   O      -30.56350        -6.08841         0.97872
   N      -28.34164        -6.48623         1.07307
   C      -29.94906        -3.31329         0.09361
   O      -29.32685        -2.17337        -0.27725
   C      -28.00864        -2.44028        -0.21717
   C      -26.73984        -1.87108        -0.41812
   H        2.89207         2.43690        -0.60049
   H        2.84400        -2.42091         0.61926
   H        5.68073         2.19410        -0.41280
   H       -2.48569        -0.81995        -0.02213
   H       -2.14410         2.14041        -0.75639
   H       -4.42159         3.30701        -1.16565
   H       -6.95553         2.81272        -1.16370
   H       -9.09681         1.83380        -1.02195
   H      -11.11226         0.25355        -0.71168
   H      -11.66990        -2.18488        -0.10149
   H       -9.19922        -3.92068         0.46450
   H       -9.85489        -6.37751         1.09080
   H      -11.93842        -7.86591         1.41516
   H      -14.20715        -8.72896         1.59116
   H      -16.77106        -9.01284         1.61470
   H      -18.92846        -7.69163         1.22472
   H      -27.39424        -6.16906         0.95238
   H      -28.49084        -7.43462         1.37486
   H      -31.02075        -3.30832         0.11163
   H      -26.48435        -0.88110        -0.73393
*
