# ORCA input file
# SCF done       -194.629915919159          0.000819598401
! CAM-B3LYP def2-SVP def2/J RIJCOSX Grid4 TightSCF
%maxcore 5000
%tddft
    Mode sTDDFT
    Ethresh 5.0
    maxcore 5000
end

%pal
  nprocs 6
  end
* xyz 0 1
   C      -13.27826        -1.70394        -5.36543
   C      -13.95129        -2.57751        -4.54907
   C      -14.81369        -3.59096        -5.01550
   N      -15.52785        -4.43344        -5.33020
   C      -13.88483        -2.59836        -3.14107
   N      -13.88939        -2.68401        -1.99545
   C      -13.33900        -1.68926        -6.82037
   C      -12.48852        -0.66562        -7.30457
   C      -12.33547        -0.39559        -8.64259
   C      -13.05238        -1.17879        -9.55231
   C      -13.89799        -2.20279        -9.06177
   C      -14.05648        -2.47203        -7.70886
   S      -14.68951        -3.05054       -10.35707
   C      -13.88332        -2.03263       -11.52138
   C      -13.06433        -1.10487       -10.97196
  Br      -14.19952        -2.29065       -13.35217
   C      -11.83313         0.01317        -6.17006
   O      -11.06010         0.94216        -6.24487
   C      -12.36570        -0.65035        -4.94800
   C      -12.14572        -0.21733        -3.68002
   C      -11.15018         0.77220        -3.33714
   C       -9.86043         0.61752        -3.76271
   S       -8.78736         1.84088        -3.24370
   C      -10.10704         2.67814        -2.48524
   C      -11.31963         1.97511        -2.55732
   C      -12.46954         2.50719        -1.92461
   C      -13.72686         1.68076        -1.93080
   C      -13.74835         0.66645        -0.78578
   C      -12.41410         3.75335        -1.31450
   C      -13.49849         4.22371        -0.37724
   C      -12.92559         4.45969         1.02322
   C      -11.24711         4.54673        -1.46022
   C      -11.00783         5.93110        -1.12877
   C       -9.68487         6.25169        -1.21308
   S       -8.68180         4.98382        -1.80188
   C      -10.07108         3.94981        -1.93865
   C      -11.99440         6.98042        -0.96545
   C      -13.09579         7.04518        -1.73701
   C      -14.06852         8.09017        -1.74357
   S      -15.06346         8.27223        -3.15884
   C      -15.79367         9.68092        -2.50051
   C      -15.31482        10.01317        -1.27346
   C      -15.83763        11.17437        -0.49368
   C      -14.32068         9.09115        -0.81339
   C      -13.71626         9.09506         0.49087
   C      -13.34494        10.19670         1.18580
   C      -12.78502        10.19939         2.49168
   C      -12.69541         9.12582         3.33005
   C      -12.15801         9.18950         4.62299
   C      -12.12452         8.12954         5.49669
   C      -11.63479         8.13150         6.82409
   C      -11.77200         6.94166         7.47392
   C      -12.37385         5.92853         6.69638
   S      -12.74867         6.53418         5.09773
   C      -12.68551         4.63549         7.06862
   C      -12.48528         4.02757         8.32788
   C      -12.94766         2.75200         8.38628
   C      -13.53669         2.26916         7.18099
   S      -13.44179         3.51580         5.95146
   C      -14.10890         1.02835         7.10329
   C      -14.77015         0.33920         6.04894
   C      -15.39736        -0.89134         6.33390
   O      -15.29832        -1.29682         7.63070
   C      -16.26282        -2.13925         8.22512
   C      -16.04201        -1.65669         5.31527
   O      -16.55274        -2.86319         5.70011
   C      -17.19270        -3.66415         4.73583
   C      -16.11702        -1.19959         4.01916
   C      -15.52259         0.02597         3.70168
   C      -14.83913         0.79558         4.70573
   N      -14.32297         1.90700         4.20290
   S      -14.66658         1.98844         2.62790
   N      -15.48502         0.60621         2.50369
   H      -11.68049         0.39437        -8.97507
   H      -14.71677        -3.25994        -7.38759
   H      -12.49153        -0.39645       -11.54194
   H      -12.70504        -0.65815        -2.86733
   H       -9.47439        -0.20657        -4.33068
   H      -13.78478         1.16047        -2.89060
   H      -14.60803         2.31965        -1.87041
   H      -12.83181         0.08128        -0.76556
   H      -14.58971        -0.01391        -0.89004
   H      -13.83940         1.17480         0.17069
   H      -14.28136         3.47393        -0.29601
   H      -13.95686         5.14741        -0.73057
   H      -12.41296         3.56917         1.37953
   H      -13.72522         4.69649         1.72116
   H      -12.21659         5.28306         1.02379
   H       -9.24631         7.21205        -1.02443
   H      -11.72778         7.80065        -0.31453
   H      -13.24088         6.28326        -2.49378
   H      -16.55330        10.18658        -3.06405
   H      -16.82803        11.44855        -0.85039
   H      -15.18649        12.04072        -0.61031
   H      -15.89381        10.92723         0.56443
   H      -13.54383         8.11496         0.91620
   H      -13.42845        11.16284         0.70823
   H      -12.41833        11.15231         2.85312
   H      -13.07458         8.16274         3.01471
   H      -11.75965        10.13391         4.97142
   H      -11.20358         9.01633         7.25895
   H      -11.46099         6.76754         8.48855
   H      -12.01932         4.54202         9.14963
   H      -12.89560         2.12834         9.26182
   H      -14.07267         0.46494         8.02682
   H      -16.09603        -3.18816         7.97366
   H      -17.27791        -1.85472         7.94131
   H      -16.13561        -1.99955         9.29952
   H      -18.06718        -3.16092         4.31233
   H      -17.51343        -4.55761         5.26949
   H      -16.50829        -3.94748         3.93086
   H      -16.59368        -1.75783         3.23336
*
