# ORCA input file
# SCF done       -171.284654628051          0.000510613430
! CAM-B3LYP def2-SVP def2/J RIJCOSX Grid4 TightSCF
%maxcore 5000
%tddft
    Mode sTDDFT
    Ethresh 5.0
    maxcore 5000
end

%pal
  nprocs 6
  end
* xyz 0 1
   C      -17.17398        -2.54641        -4.94048
   C      -17.28359        -3.72024        -4.21436
   C      -18.10491        -4.79375        -4.58687
   N      -18.70593        -5.73336        -4.87139
   C      -16.59134        -4.02819        -3.02902
   N      -16.08424        -4.36393        -2.05276
   C      -17.94847        -2.24327        -6.14551
   C      -17.51650        -0.99432        -6.64937
   C      -18.03096        -0.43740        -7.79112
   C      -19.02394        -1.15105        -8.47511
   C      -19.45345        -2.39278        -7.96025
   C      -18.93418        -2.95441        -6.79806
   S      -20.68139        -3.10954        -8.96041
   C      -20.60024        -1.74529       -10.04263
   C      -19.70208        -0.80182        -9.67570
  Br      -21.70927        -1.69571       -11.55633
   C      -16.44727        -0.46574        -5.77046
   O      -15.84795         0.58288        -5.93521
   C      -16.26611        -1.46930        -4.71702
   C      -15.30803        -1.38919        -3.70343
   C      -14.37101        -0.38986        -3.58824
   C      -13.38997        -0.36077        -2.59443
   C      -12.40176         0.61946        -2.44050
   C      -11.56926         0.40445        -1.36757
   C      -11.87688        -0.75673        -0.65122
   S      -13.23928        -1.57861        -1.35652
   C      -11.23014        -1.23780         0.49654
   C      -10.22240        -0.60354         1.22860
   C       -9.81967        -1.31332         2.33566
   C      -10.48617        -2.53288         2.49952
   S      -11.64601        -2.76758         1.21558
   C      -10.27588        -3.43083         3.54795
   C      -10.84868        -4.66521         3.73084
   S      -11.95712        -5.45299         2.60550
   C      -12.11833        -6.91577         3.58243
   C      -11.34374        -6.76451         4.75866
   C      -10.65140        -5.54222         4.82234
   N       -9.95536        -5.55569         5.97878
   N      -10.15575        -6.69763         6.65307
   C      -10.97976        -7.43693         5.94409
   C      -12.86921        -8.00203         3.20148
   C      -13.53790        -8.11364         1.98410
   C      -14.26693        -9.21790         1.61458
   C      -14.89019        -9.37466         0.37354
   C      -15.65297       -10.47141        -0.04815
   C      -16.12545       -10.35942        -1.33404
   C      -15.74160        -9.17043        -1.96638
   S      -14.78097        -8.18458        -0.89781
   C      -16.03492        -8.75075        -3.26614
   C      -16.82433        -9.40221        -4.22841
   C      -16.93027        -8.71038        -5.40334
   C      -16.22660        -7.48739        -5.41294
   S      -15.41081        -7.25032        -3.88627
   C      -16.23962        -6.57288        -6.44697
   C      -15.58054        -5.34223        -6.49900
   S      -15.91371        -4.23128        -7.83406
   C      -14.82550        -2.98132        -7.27175
   C      -14.24528        -3.44127        -6.11211
   C      -14.65436        -4.70928        -5.68104
   O      -13.94349        -5.00774        -4.55192
   C      -13.13613        -3.94858        -4.29352
   O      -12.37564        -3.87357        -3.38823
   O      -13.30683        -2.97831        -5.23597
   C      -14.63563        -1.75698        -7.98599
   C      -13.81380        -0.79073        -7.57222
   H      -17.67806         0.51635        -8.15097
   H      -19.29809        -3.90556        -6.44832
   H      -19.52385         0.10378       -10.22648
   H      -15.28244        -2.18080        -2.96364
   H      -14.37292         0.41743        -4.30651
   H      -12.32306         1.45512        -3.11291
   H      -10.75267         1.05084        -1.10095
   H       -9.82139         0.35413         0.95140
   H       -9.06201        -0.98038         3.02317
   H       -9.57180        -3.10841         4.30609
   H       -9.34811        -4.85147         6.36419
   H      -11.28029        -8.40224         6.29679
   H      -12.91505        -8.83072         3.89680
   H      -13.46175        -7.28773         1.28727
   H      -14.36974       -10.03787         2.31434
   H      -15.84003       -11.31506         0.59268
   H      -16.72620       -11.10467        -1.82301
   H      -17.30202       -10.34615        -4.03826
   H      -17.50352        -9.03460        -6.25294
   H      -16.85614        -6.81251        -7.30198
   H      -15.21354        -1.65564        -8.89376
   H      -13.24629        -0.88955        -6.66300
   H      -13.70277         0.12357        -8.12530
*
