# ORCA input file
# SCF done       -160.768649691083          0.000700522174
! CAM-B3LYP def2-SVP def2/J RIJCOSX Grid4 TightSCF
%maxcore 5000
%tddft
    Mode sTDDFT
    Ethresh 5.0
    maxcore 5000
end

%pal
  nprocs 6
  end
* xyz 0 1
   C        1.33915        -4.63146         1.09019
   C        1.97591        -5.14943        -0.01097
   C        2.76722        -6.31489         0.01050
   N        3.42648        -7.25464        -0.03008
   C        1.89080        -4.61827        -1.31426
   N        1.84427        -4.26613        -2.40695
   C        1.30473        -5.23812         2.41541
   C        0.42858        -4.48416         3.23327
   C        0.17381        -4.81149         4.54176
   C        0.81424        -5.93863         5.06957
   C        1.69294        -6.68095         4.24691
   C        1.95110        -6.34969         2.92232
   S        2.38505        -8.02771         5.10129
   C        1.49215        -7.58269         6.53099
   C        0.71705        -6.48290         6.37975
  Br        1.66660        -8.61221         8.09010
   C       -0.10411        -3.34070         2.46132
   O       -0.81857        -2.45608         2.89066
   C        0.50059        -3.45286         1.11967
   C        0.46426        -2.48475         0.14543
   C       -0.43709        -1.41471         0.01804
   S        0.11717         0.00837        -0.83156
   C       -1.38802         0.77601        -0.57333
   C       -2.29686         0.00640         0.09033
   C       -3.68650         0.48438         0.35099
   C       -1.77130        -1.27559         0.43107
   C       -2.50047        -2.38450         0.96633
   C       -3.60875        -2.34071         1.73968
   C       -4.28921        -3.50668         2.18943
   C       -5.42980        -3.46307         2.91445
   C       -6.13577        -4.62669         3.35234
   C       -7.35045        -4.62892         3.92965
   C       -8.13502        -3.37890         4.19684
   C       -8.00707        -5.92770         4.32701
   N       -8.50259        -5.91295         5.68354
   C       -9.79934        -5.67081         6.05745
   C      -10.88400        -5.72288         5.25965
   C      -12.26819        -5.55969         5.59702
   N      -12.82187        -4.86614         6.63567
   C      -12.11731        -4.08089         7.61469
   C      -11.92900        -4.83954         8.92867
   C      -14.19679        -4.96830         6.57187
   C      -14.50670        -5.74132         5.45344
   C      -13.31452        -6.09405         4.84331
   C      -15.07031        -4.35436         7.50954
   C      -16.41830        -4.46128         7.46943
   C      -17.36020        -3.86297         8.37387
   C      -17.08008        -3.23963         9.58541
   O      -15.77283        -3.13784        10.01689
   C      -15.45059        -3.88953        11.17120
   C      -18.10826        -2.64971        10.38941
   O      -17.65652        -2.03685        11.51980
   C      -18.58340        -1.36008        12.33190
   C      -19.43187        -2.69851        10.02546
   C      -19.76049        -3.34529         8.82656
   C      -18.73526        -3.92033         8.00183
   N      -19.23325        -4.48564         6.90756
   S      -20.83619        -4.31142         6.91678
   N      -20.97739        -3.50753         8.30943
   H       -0.49996        -4.21810         5.13996
   H        2.63342        -6.94284         2.33668
   H        0.10355        -6.06936         7.15923
   H        1.25182        -2.50144        -0.59945
   H       -1.53530         1.77435        -0.93855
   H       -3.89230         1.36912        -0.24706
   H       -3.81032         0.74834         1.40069
   H       -4.40901        -0.28951         0.09882
   H       -2.09852        -3.35907         0.71071
   H       -3.99700        -1.39669         2.08705
   H       -3.87038        -4.46606         1.91187
   H       -5.84845        -2.49905         3.16806
   H       -5.64567        -5.57480         3.16724
   H       -8.31526        -2.83734         3.26939
   H       -7.59304        -2.71435         4.86943
   H       -9.09646        -3.61436         4.64453
   H       -7.28999        -6.75017         4.22837
   H       -8.84341        -6.13292         3.65527
   H       -7.79976        -5.70066         6.37379
   H       -9.89443        -5.50638         7.11984
   H      -10.75147        -5.98546         4.21861
   H      -12.68259        -3.16315         7.80237
   H      -11.15157        -3.79316         7.19224
   H      -12.89582        -5.06429         9.37135
   H      -11.35421        -4.23910         9.62944
   H      -11.41003        -5.78055         8.75974
   H      -15.49263        -6.00456         5.12728
   H      -13.19585        -6.69122         3.96007
   H      -14.62964        -3.75932         8.29288
   H      -16.88538        -5.02207         6.67255
   H      -15.58476        -4.96160        10.98511
   H      -16.05296        -3.59353        12.03196
   H      -14.40138        -3.68296        11.37755
   H      -19.09592        -0.56740        11.77879
   H      -17.99926        -0.91910        13.13835
   H      -19.32464        -2.04678        12.75336
   H      -20.21918        -2.26006        10.61334
*
