# ORCA input file
# SCF done       -146.233648560080          0.000468938014
! CAM-B3LYP def2-SVP def2/J RIJCOSX Grid4 TightSCF
%maxcore 5000
%tddft
    Mode sTDDFT
    Ethresh 5.0
    maxcore 5000
end

%pal
  nprocs 6
  end
* xyz 0 1
   C       -6.12437        -2.10780        -4.88439
   C       -4.87437        -2.03414        -5.45543
   C       -4.32771        -3.02881        -6.28873
   N       -3.82993        -3.80150        -6.97815
   C       -3.95264        -0.98654        -5.26690
   N       -3.13806        -0.18447        -5.14645
   C       -7.03994        -3.24094        -5.02352
   C       -8.17419        -2.99962        -4.21352
   C       -9.22067        -3.88152        -4.11861
   C       -9.15209        -5.06164        -4.86667
   C       -8.01812        -5.29279        -5.67779
   C       -6.95453        -4.40045        -5.76902
   S       -8.13820        -6.80669        -6.52475
   C       -9.68867        -7.10181        -5.78461
   C      -10.09810        -6.12006        -4.94700
  Br      -10.62658        -8.67796        -6.18475
   C       -8.02229        -1.69227        -3.54148
   O       -8.80821        -1.22142        -2.73602
   C       -6.75286        -1.13476        -4.02846
   C       -6.28489         0.13413        -3.72904
   C       -6.96602         1.04515        -2.92814
   C       -6.45231         2.28440        -2.59572
   C       -7.03798         3.23404        -1.76362
   C       -8.25995         3.18006        -1.10483
   C       -8.71306         4.14371        -0.17297
   C       -9.90891         3.84600         0.41841
   C      -10.47219         2.64051        -0.03977
   S       -9.44522         1.91014        -1.25205
   C      -11.62540         1.99080         0.37005
   C      -12.49232         2.30674         1.43818
   C      -13.45859         1.36866         1.64485
   C      -13.39736         0.25421         0.76566
   S      -12.11749         0.50469        -0.40283
   C      -14.23175        -0.83691         0.83473
   C      -14.25654        -2.04441         0.10887
   S      -15.83767        -2.80716         0.00137
   C      -15.24432        -3.98239        -1.09546
   C      -13.91638        -3.85158        -1.35343
   C      -13.16032        -4.76276        -2.26296
   C      -13.31532        -2.77264        -0.63376
   C      -11.89653        -2.59066        -0.63428
   C      -11.17306        -2.03676         0.36419
   C       -9.79099        -1.72504         0.22810
   C       -9.17475        -0.83278         1.03194
   C       -7.87284        -0.30582         0.80971
   S       -6.66650        -1.01951        -0.23772
   C       -5.54064         0.25295        -0.01685
   C       -6.05580         1.21981         0.81394
   C       -7.36671         0.88316         1.27881
   O       -7.87346         1.87013         2.05402
   C       -6.90659         2.82874         2.08064
   N       -7.20262         4.02349         2.77219
   O       -6.33848         4.88090         2.77593
   O       -8.29564         4.12427         3.29039
   C       -5.78521         2.50154         1.36592
   H      -10.07159        -3.66609        -3.49163
   H       -6.11436        -4.62514        -6.40424
   H      -11.02839        -6.14121        -4.40901
   H       -5.33941         0.44846        -4.15178
   H       -7.92502         0.73751        -2.54633
   H       -5.47718         2.53786        -2.99499
   H       -6.46345         4.13180        -1.57088
   H       -8.13249         5.02287         0.04886
   H      -10.37663         4.45181         1.17299
   H      -12.35873         3.18810         2.03846
   H      -14.19511         1.42039         2.42743
   H      -15.06609        -0.71882         1.51897
   H      -15.91749        -4.71847        -1.48997
   H      -13.82073        -5.52802        -2.66284
   H      -12.34543        -5.24732        -1.72619
   H      -12.73936        -4.19731        -3.09460
   H      -11.37053        -2.93337        -1.51408
   H      -11.65993        -1.75088         1.28729
   H       -9.26951        -2.10217        -0.64030
   H       -9.71175        -0.37602         1.85471
   H       -4.59316         0.22322        -0.51369
   H       -4.91074         3.10846         1.25485
*
