# ORCA input file
# SCF done       -159.399994977503          0.000388782919
! CAM-B3LYP def2-SVP def2/J RIJCOSX Grid4 TightSCF
%maxcore 5000
%tddft
    Mode sTDDFT
    Ethresh 5.0
    maxcore 5000
end

%pal
  nprocs 6
  end
* xyz 0 1
   C       -6.33132        11.70711         0.41353
   C       -6.19293        12.49526         1.52743
   C       -6.46656        13.87831         1.54671
   N       -6.68075        15.00410         1.62109
   C       -5.70143        12.07023         2.78046
   N       -5.27496        11.82608         3.81786
   C       -6.71504        12.18889        -0.91210
   C       -6.58383        11.11889        -1.82693
   C       -6.88953        11.23038        -3.16023
   C       -7.32526        12.47546        -3.62186
   C       -7.42165        13.55381        -2.71179
   C       -7.13495        13.42991        -1.35603
   S       -7.92500        15.01465        -3.51135
   C       -7.99644        14.16216        -5.03188
   C       -7.67572        12.85064        -4.94680
  Br       -8.45689        15.07261        -6.60534
   C       -6.04988         9.93419        -1.12722
   O       -5.62567         8.94363        -1.68614
   C       -6.06699        10.28152         0.31419
   C       -5.97393         9.42739         1.38607
   C       -5.83639         8.02718         1.36178
   O       -5.69944         7.33390         0.20431
   C       -5.84444         7.10053         2.40181
   C       -5.96719         6.95370         3.86203
   O       -6.12703         7.77025         4.72801
   N       -5.87256         5.57910         4.05687
   C       -5.71948         4.81914         2.89443
   O       -5.63039         3.62017         2.86185
   C       -5.70791         5.82313         1.82796
   C       -5.62047         6.00217         0.44621
   C       -5.50222         5.13093        -0.65375
   C       -5.43584         5.68321        -1.90758
   C       -5.41001         5.00672        -3.13696
   C       -5.38203         5.69264        -4.35871
   O       -5.53952         5.04247        -5.55939
   C       -5.63648         3.68479        -5.49342
   C       -5.59107         2.98334        -4.25370
   C       -5.68380         1.63839        -4.40796
   S       -5.83031         1.20918        -6.07044
   C       -5.76485         2.85911        -6.56215
   O       -5.48210         3.63240        -3.06357
   C       -5.19063         7.08134        -4.45889
   C       -5.35369         7.82142        -5.60899
   C       -5.10940         9.19167        -5.62298
   C       -5.41149        10.06127        -6.65420
   C       -5.19083        11.45478        -6.66066
   C       -5.66692        12.09418        -7.77145
   C       -6.28500        11.23454        -8.69844
   S       -6.22380         9.57893        -8.12920
   C       -6.89677        11.57782        -9.89445
   C       -7.07258        12.86831       -10.43458
   C       -7.73304        12.87622       -11.62673
   C       -8.11780        11.59728       -12.10102
   S       -7.59472        10.37750       -10.95256
   C       -8.80787        11.37220       -13.27013
   C       -9.25914        10.16842       -13.84839
   C       -9.02994         8.89634       -13.36525
   C       -9.60556         7.82870       -14.12904
   C      -10.30324         8.19069       -15.23500
  Si      -10.28661        10.03451       -15.41762
   H       -6.79388        10.38880        -3.82845
   H       -7.24012        14.27808        -0.70062
   H       -7.67549        12.17608        -5.78272
   H       -6.06785         9.83200         2.38505
   H       -5.92081         5.15916         4.97414
   H       -5.48214         4.06942        -0.47117
   H       -5.45120         6.75924        -1.94744
   H       -5.67477         0.88618        -3.64754
   H       -5.82238         3.12478        -7.59679
   H       -4.91232         7.61585        -3.56631
   H       -5.70954         7.34480        -6.51253
   H       -4.66635         9.63079        -4.73762
   H       -4.69625        11.94702        -5.84162
   H       -5.59381        13.15388        -7.93742
   H       -6.72408        13.75167        -9.93120
   H       -7.96211        13.76716       -12.18433
   H       -9.05013        12.27241       -13.82376
   H       -8.45376         8.67426       -12.48114
   H       -9.46974         6.80487       -13.81148
   H      -10.77090         7.45239       -15.86590
   H      -11.59828        10.67255       -15.28933
   H       -9.57463        10.52231       -16.60059
*
