# ORCA input file
# SCF done       -196.271578479842          0.000453726110
! CAM-B3LYP def2-SVP def2/J RIJCOSX Grid4 TightSCF
%maxcore 5000
%tddft
    Mode sTDDFT
    Ethresh 5.0
    maxcore 5000
end

%pal
  nprocs 6
  end
* xyz 0 1
   C        0.59363         4.51187         3.72885
   C       -0.67061         4.45093         4.24618
   F       -1.51420         5.48188         4.05517
   C       -1.13179         3.34718         4.97571
   C       -0.28832         2.29028         5.17916
   C        1.02534         2.30041         4.66822
   C        1.47603         3.43321         3.93037
   C        2.79394         3.47124         3.41614
   C        3.62863         2.40875         3.62985
   C        3.16735         1.27395         4.35642
   C        1.90503         1.21279         4.87046
   C        4.24672         0.27228         4.42164
   O        4.24098        -0.79399         4.99325
   C        5.35563         0.82911         3.59343
   C        5.02447         2.18600         3.25869
   C        5.89511         3.16612         2.84224
   C        7.28986         3.00169         2.77333
   N        8.43433         2.91954         2.71258
   C        5.51111         4.47835         2.50402
   N        5.26633         5.55000         2.17166
   C        6.40152        -0.00203         3.29760
   C        7.42751         0.05397         2.33841
   C        7.53375         0.68867         1.09711
   C        8.78623         0.48698         0.47829
   S        9.33252         1.24795        -1.00459
   C        8.13344         2.61039        -1.11503
   C        6.72913         2.06417        -1.20672
   S        6.13819         1.49383         0.42117
   C        9.62660        -0.34060         1.21333
   S        8.85830        -0.88966         2.66570
   C       10.96316        -0.73259         0.93866
   C       11.67669        -0.65934        -0.24460
   C       12.98423        -1.12119        -0.09313
   C       13.26591        -1.55603         1.21332
   S       11.92359        -1.40219         2.25224
   C       14.61411        -1.99027         1.26458
   C       15.18584        -1.83149        -0.00967
   C       14.17933        -1.28330        -0.90654
   C       14.32788        -0.97971        -2.22745
   C       15.54483        -1.17873        -2.91411
   N       16.52931        -1.33471        -3.48081
   C       13.27573        -0.44405        -3.00085
   N       12.42826        -0.00920        -3.63896
   C       16.52564        -2.21442        -0.05911
   C       16.97856        -2.66687         1.16823
   S       15.72210        -2.61274         2.40037
   C       18.26427        -3.13352         1.54147
   C       19.33054        -3.53242         0.74409
   C       20.46055        -3.90709         1.50095
   S       22.00864        -4.47448         0.92897
   C       21.88770        -4.13471        -0.85872
   C       20.59006        -4.66202        -1.42408
   S       19.19806        -3.56454        -1.00469
   C       20.24507        -3.85730         2.87611
   S       18.64427        -3.27030         3.23092
   C       21.20103        -4.11904         3.87797
   C       20.97562        -4.39268         5.19409
   C       22.02964        -4.13673         6.21097
   O       23.20190        -3.92025         6.00542
   C       21.31738        -4.13793         7.50552
   C       21.79019        -3.82643         8.74734
   C       20.90727        -3.86130         9.85046
   C       19.54253        -4.21728         9.64329
   C       18.66661        -4.23886        10.74586
   C       19.14277        -3.92250        11.98770
   C       20.48109        -3.57283        12.21271
   C       21.34468        -3.54560        11.15311
   F       18.30737        -3.94252        13.04231
   C       19.08182        -4.54604         8.34692
   C       19.95769        -4.51120         7.29680
   C       19.77924        -4.82163         5.88220
   C       18.79231        -5.61796         5.35916
   C       18.83047        -6.12597         4.04468
   N       18.86330        -6.58991         2.99460
   C       17.68766        -6.08442         6.09771
   N       16.76120        -6.47385         6.65266
   H        0.91544         5.37975         3.17463
   H       -2.13935         3.35531         5.36011
   H       -0.62048         1.42841         5.73811
   H        3.10584         4.34035         2.85900
   H        1.58024         0.34588         5.42609
   H        6.42411        -0.89593         3.91772
   H        8.40307         3.14784        -2.02373
   H        8.26202         3.26254        -0.25007
   H        6.67026         1.23738        -1.91565
   H        6.01672         2.83938        -1.49110
   H       11.25822        -0.31223        -1.17000
   H       17.14738        -2.14432        -0.93128
   H       22.74498        -4.64941        -1.29282
   H       21.98743        -3.06136        -1.02344
   H       20.36899        -5.66430        -1.05570
   H       20.61119        -4.66897        -2.51377
   H       22.24046        -4.00927         3.58077
   H       22.82555        -3.55445         8.88815
   H       17.63053        -4.50694        10.60985
   H       20.79972        -3.33295        13.21471
   H       22.38021        -3.27875        11.30171
   H       18.04333        -4.80556         8.21335
*
