# ORCA input file
# SCF done       -204.624231804476          0.000661416769
! CAM-B3LYP def2-SVP def2/J RIJCOSX Grid4 TightSCF
%maxcore 5000
%tddft
    Mode sTDDFT
    Ethresh 5.0
    maxcore 5000
end

%pal
  nprocs 6
  end
* xyz 0 1
   C       -3.36732         2.16892         1.93308
   C       -2.36257         2.35485         2.87184
   C       -1.43173         1.35985         3.13363
   C       -1.47220         0.14963         2.45656
   C       -2.47096        -0.04634         1.51880
   C       -3.42744         0.96103         1.25709
   C       -4.36564         0.47110         0.25339
   C       -5.35389         1.20397        -0.35161
   C       -5.60623         2.56530        -0.08145
   N       -5.86722         3.66987         0.09017
   C       -6.22139         0.72464        -1.35427
   N       -6.95455         0.39573        -2.17539
   C       -4.04724        -0.93179         0.03583
   C       -2.74830        -1.17455         0.64366
   C       -1.83467        -2.10903         0.23202
   C       -2.05337        -2.97449        -0.85972
   N       -2.18672        -3.65628        -1.77391
   C       -0.53844        -2.23156         0.77223
   N        0.52408        -2.37857         1.17991
   C       -4.90238        -1.84039        -0.53760
   C       -4.93991        -3.23243        -0.39159
   S       -4.14016        -4.13661         0.87771
   C       -4.85065        -5.65229         0.38727
   C       -5.67248        -5.44724        -0.70955
   C       -5.74175        -4.10015        -1.14612
   C       -6.57920        -3.95051        -2.27276
   C       -7.11731        -5.14219        -2.66357
   C       -8.02135        -5.41843        -3.78805
   O       -8.44134        -6.51711        -4.05334
   O       -8.31317        -4.30867        -4.47223
   C       -9.17829        -4.47896        -5.58723
   S       -6.63697        -6.50444        -1.68344
   C       -4.55159        -6.84451         1.07561
   C       -3.63127        -7.00185         2.10338
   C       -3.57211        -8.31593         2.54858
   C       -4.46244        -9.16886         1.86238
   S       -5.36069        -8.34994         0.66184
   C       -4.32046       -10.47530         2.38296
   C       -3.33074       -10.45831         3.38459
   C       -2.83627        -9.09837         3.52853
   C       -1.89437        -8.64893         4.40622
   C       -1.52584        -7.28832         4.47636
   N       -1.23939        -6.18020         4.53957
   C       -1.24180        -9.51418         5.30979
   N       -0.71377       -10.22031         6.04253
   C       -3.11370       -11.70845         3.95607
   C       -3.93939       -12.68063         3.41485
   S       -4.99597       -12.02798         2.16530
   C       -3.99637       -14.05989         3.76402
   C       -4.98581       -14.90329         3.30693
   C       -5.08511       -16.25190         3.62542
   C       -4.09154       -16.90801         4.47388
   C       -3.04020       -16.27210         5.03942
   S       -2.71220       -14.60450         4.83067
   C       -4.50683       -18.26468         4.56225
   C       -5.68764       -18.45690         3.83934
   C       -6.12223       -19.79891         3.91283
   C       -5.28961       -20.55976         4.67169
   S       -3.94661       -19.69427         5.32658
   C       -6.07753       -17.19496         3.25404
   C       -7.24173       -16.87546         2.54274
   C       -8.29184       -17.72041         2.29264
   C       -9.46290       -17.27312         1.67176
   C      -10.64032       -17.97648         1.53951
   C      -11.69050       -17.66045         0.58704
   C      -11.86994       -16.48294        -0.09409
   C      -11.07122       -15.32946         0.04250
   N      -10.46840       -14.35316         0.10478
   C      -12.92042       -16.24780        -1.00511
   N      -13.74749       -15.98770        -1.75804
   C      -12.53751       -18.84311         0.48413
   C      -12.09770       -19.80116         1.42535
   C      -12.72194       -21.03311         1.52151
   C      -13.78788       -21.30425         0.67598
   C      -14.22787       -20.36135        -0.24084
   C      -13.61025       -19.12347        -0.34637
   C      -11.00336       -19.22032         2.19191
   C      -10.57696       -19.66200         3.42057
   C      -10.96554       -20.88970         3.99378
   N      -11.20749       -21.89151         4.50047
   C       -9.79583       -18.90971         4.32282
   N       -9.21369       -18.33514         5.12913
   H       -4.08365         2.95217         1.74709
   H       -2.31006         3.28963         3.40872
   H       -0.66538         1.52640         3.87500
   H       -0.74973        -0.62125         2.67121
   H       -5.72733        -1.44678        -1.11703
   H       -6.77874        -3.02296        -2.77691
   H       -9.34096        -3.48546        -5.99605
   H      -10.12239        -4.92599        -5.26975
   H       -8.71346        -5.13004        -6.33035
   H       -3.04123        -6.18633         2.48167
   H       -2.40197       -11.91344         4.73537
   H       -5.73509       -14.46318         2.66206
   H       -2.33033       -16.77571         5.67623
   H       -6.99404       -20.20992         3.43959
   H       -5.38364       -21.60442         4.89526
   H       -7.35355       -15.84435         2.23124
   H       -8.21503       -18.75400         2.58467
   H       -9.41045       -16.29926         1.20473
   H      -12.38797       -21.77627         2.22726
   H      -14.27958       -22.26320         0.73564
   H      -15.06204       -20.59153        -0.88589
   H      -13.96467       -18.40441        -1.06630
*
