# ORCA input file
# SCF done       -155.382347927401          0.000393087186
! CAM-B3LYP def2-SVP def2/J RIJCOSX Grid4 TightSCF
%maxcore 5000
%tddft
    Mode sTDDFT
    Ethresh 5.0
    maxcore 5000
end

%pal
  nprocs 6
  end
* xyz 0 2
   C        3.79875        -6.40399        -8.64948
   C        4.46388        -5.56639        -7.84178
   C        5.41912        -4.56119        -8.20993
   C        5.95779        -3.89432        -7.16448
   C        5.46572        -4.30109        -5.89298
   S        4.28158        -5.57504        -6.07878
   C        5.82540        -3.81620        -4.65471
   C        6.80483        -2.84461        -4.34091
   C        6.93633        -2.60811        -3.00601
   C        6.06256        -3.36825        -2.19119
   S        5.06439        -4.40138        -3.18814
   C        5.97034        -3.34528        -0.81678
   C        5.04618        -4.11955        -0.11082
   O        4.17619        -4.91056        -0.80492
   C        4.77680        -4.27910         1.24635
   C        5.17460        -3.85933         2.58886
   O        6.02876        -3.09736         2.96662
   N        4.30609        -4.56534         3.42247
   C        3.39403        -5.39086         2.76558
   O        2.56491        -6.07945         3.30788
   C        3.71059        -5.19496         1.35348
   C        3.34852        -5.57022         0.06118
   C        2.34985        -6.42025        -0.42538
   C        2.17023        -6.57050        -1.78393
   C        1.26290        -7.31987        -2.51975
   S        1.33050        -7.09550        -4.25564
   C        0.01184        -8.21186        -4.54516
   C       -0.45785        -8.74587        -3.35189
   C        0.24274        -8.26012        -2.18195
   C       -0.05459        -8.69319        -0.91692
   S       -1.28820        -9.82071        -0.52578
   C       -1.95783       -10.19315        -2.07420
   C       -1.52479        -9.67849        -3.24075
   C       -0.43201        -8.46383        -5.85898
   C        0.07497        -7.83630        -6.95955
   C       -0.35276        -8.08566        -8.27576
   C        0.14583        -7.42873        -9.36696
   C       -0.27153        -7.67687       -10.68458
   C        0.23195        -7.01471       -11.77317
   C       -0.22401        -7.27016       -13.07434
   C        0.21830        -6.63259       -14.20956
   C       -0.26050        -6.84185       -15.55671
   C       -1.18860        -7.76494       -15.97668
   C       -1.60921        -7.91298       -17.31352
   N       -1.99477        -8.08703       -18.38162
   C       -1.84934        -8.70116       -15.15673
   N       -2.43153        -9.49705       -14.56623
   C        0.42848        -5.89175       -16.42635
   C        1.33693        -5.13721       -15.64543
   C        1.25544        -5.58026       -14.23750
   O        1.92127        -5.15278       -13.31445
   C        2.13384        -4.15425       -16.17808
   C        2.02719        -3.89838       -17.54958
   C        1.11625        -4.65586       -18.32164
   C        0.31235        -5.65325       -17.78275
   S        1.13928        -4.17496       -19.99193
   C        2.35576        -2.97846       -19.63347
   C        2.72760        -2.93969       -18.33225
  Br        3.01992        -1.89204       -21.01149
   H        3.93431        -6.36391        -9.71603
   H        3.12384        -7.14526        -8.26108
   H        5.66382        -4.39064        -9.24306
   H        6.69306        -3.11469        -7.25526
   H        7.38924        -2.35640        -5.10011
   H        7.63196        -1.91005        -2.57510
   H        6.62587        -2.70916        -0.24384
   H        4.33650        -4.48367         4.42833
   H        1.74392        -6.89892         0.32391
   H        2.84407        -5.98364        -2.39804
   H        0.48226        -8.35531        -0.05030
   H       -2.77194       -10.89644        -2.02246
   H       -2.02020        -9.99167        -4.14777
   H       -1.21945        -9.19361        -5.98964
   H        0.85095        -7.09418        -6.81661
   H       -1.11652        -8.83927        -8.42300
   H        0.90047        -6.66687        -9.21898
   H       -1.03284        -8.43241       -10.83973
   H        0.99650        -6.26456       -11.63418
   H       -0.99865        -8.01940       -13.17539
   H        2.81655        -3.59660       -15.55619
   H       -0.36668        -6.20041       -18.41475
   H        3.46412        -2.26329       -17.93849
*
