# ORCA input file
# SCF done       -134.931447271794          0.000335331262
! CAM-B3LYP def2-SVP def2/J RIJCOSX Grid4 TightSCF
%maxcore 5000
%tddft
    Mode sTDDFT
    Ethresh 5.0
    maxcore 5000
end

%pal
  nprocs 6
  end
* xyz 0 1
   O        5.48049         0.46035         2.23138
   C        5.47573         0.86154         3.52665
   C        5.38719         2.16880         3.90675
   C        5.38788         2.50142         5.28088
   C        5.32170         3.76268         5.86679
   C        5.13224         5.03707         5.25447
   S        6.01692         6.41892         5.80664
   C        5.30120         7.43960         4.63887
   C        4.39453         6.77913         3.84526
   C        3.59770         7.30738         2.77233
   C        3.71285         8.68932         2.41418
   C        3.16837         9.28572         1.32357
   C        3.26504        10.66547         1.04401
   S        4.04513        11.77827         2.12187
   C        3.67892        13.14108         1.11901
   C        4.05342        14.44800         1.51315
   N        3.74597        15.48698         0.73560
   N        4.02360        16.71241         1.05063
   C        4.63641        17.06230         2.16925
   C        4.85878        18.45812         2.42492
   C        5.43820        19.06252         3.51231
   C        5.38458        20.45852         3.26175
   C        5.78543        21.60422         3.95155
   C        5.55162        22.82856         3.36832
   C        4.93178        22.93613         2.11975
   C        4.52515        21.82069         1.41569
   C        4.75747        20.58549         2.00071
   O        4.44539        19.37200         1.50549
   C        5.04329        16.04953         3.08667
   N        5.67722        16.13513         4.25159
   S        5.87188        14.64776         4.84685
   N        5.15799        13.82904         3.65206
   C        4.74086        14.69495         2.73965
   C        2.97787        12.74518        -0.03114
   C        2.51335        13.56982        -1.06802
   C        1.83497        13.01836        -2.12302
   O        1.36178        13.77708        -3.14961
   C        1.60322        11.61579        -2.17422
   S        0.73389        10.91831        -3.53937
   C        2.04996        10.79673        -1.16871
   C        2.74306        11.34093        -0.07597
   C        2.71315         6.44064         2.15584
   C        2.55966         5.10935         2.56418
   C        3.31672         4.58007         3.57354
   C        4.27968         5.39074         4.20708
   S        5.51922         3.64277         7.58950
   C        5.63867         1.94245         7.53670
   C        5.55415         1.45625         6.25149
   C        5.62797         0.10723         5.82971
   C        5.57580        -0.18158         4.49950
   S        5.65234        -1.81750         3.85293
   H        5.41575         1.22189         1.64296
   H        5.33473         2.95061         3.16281
   H        5.59691         8.46874         4.61266
   H        4.28846         9.31471         3.08273
   H        2.61979         8.70116         0.59954
   H        5.84133        18.56104         4.36770
   H        6.26371        21.52266         4.91541
   H        5.85080        23.73061         3.88113
   H        4.76786        23.91642         1.69820
   H        4.04643        21.89503         0.45257
   H        2.70076        14.63097        -1.00784
   H        1.58242        14.70292        -2.98841
   H        0.54843        12.07786        -4.15980
   H        1.86281         9.73680        -1.23241
   H        2.08247         6.80192         1.35890
   H        1.81517         4.49852         2.07545
   H        3.17032         3.56458         3.90625
   H        5.76656         1.38769         8.44425
   H        5.73088        -0.67255         6.56900
   H        5.73736        -2.41485         5.04369
*
