# ORCA input file
# SCF done       -222.232397432828          0.000659670269
! CAM-B3LYP def2-SVP def2/J RIJCOSX Grid4 TightSCF
%maxcore 5000
%tddft
    Mode sTDDFT
    Ethresh 5.0
    maxcore 5000
end

%pal
  nprocs 6
  end
* xyz 0 1
   C       11.37203        -8.12082        -6.79241
   C       11.51294        -7.80006        -5.49065
   C       11.27934        -6.41794        -5.22929
   C       11.32473        -5.74316        -3.99576
   C       11.58849        -6.41546        -2.73798
   C       12.33732        -5.96316        -1.69024
   C       12.33065        -6.84907        -0.59074
   C       11.57721        -7.97117        -0.77208
   S       10.85801        -7.94950        -2.34709
   C       11.34290        -9.09958         0.16399
  Cl       13.20819        -6.52191         0.85467
   C       11.07998        -4.37413        -4.02974
   C       10.76451        -3.66462        -5.21434
   C       10.70342        -4.34282        -6.44681
   C       10.98119        -5.70787        -6.41615
   S       10.96134        -6.77447        -7.79453
   C       10.35692        -3.67760        -7.68630
   C       10.88916        -3.88708        -8.92645
   C       10.28387        -3.09124        -9.92273
   C        9.28377        -2.28040        -9.47120
   S        9.07998        -2.49156        -7.76608
   C        8.44112        -1.32325       -10.23065
  Cl       10.78169        -3.15052       -11.57023
   C       10.55800        -2.28552        -4.96500
   C       10.67591        -1.94181        -3.64907
   S       11.06891        -3.32004        -2.64299
   C       10.53364        -0.64436        -3.07948
   C       10.14405         0.51359        -3.72330
   C       10.12803         1.61024        -2.85899
   C       10.50954         1.28004        -1.55022
   S       10.88035        -0.37615        -1.38044
   C       10.48163         2.46248        -0.76038
   C       10.07897         3.53133        -1.57014
   C        9.84398         3.03697        -2.91560
   C        9.45790         3.75941        -4.00751
   C        9.26327         3.16132        -5.26951
   N        9.10398         2.67843        -6.29771
   C        9.23804         5.15117        -3.94765
   N        9.06872         6.28512        -3.90965
   C       10.03031         4.75031        -0.88357
   C       10.39510         4.62743         0.43768
   S       10.79807         2.95667         0.83899
   C       10.50398         5.62514         1.47916
   C       10.55781         7.01272         1.18919
   O       10.46086         7.32819        -0.12225
   C       10.37346         8.65547        -0.60090
   C       10.72242         7.92476         2.24299
   O       10.79655         9.28109         1.97458
   C       12.06848         9.87650         2.16235
   C       10.80157         7.47143         3.56785
   C       10.72919         6.10881         3.83702
   C       10.59208         5.20923         2.80783
   C       10.93985         8.42343         4.68107
   C       11.92762         8.23583         5.65299
   O       12.81994         7.18046         5.55177
   C       13.77990         7.32000         4.52030
   C       12.05100         9.13887         6.71947
   O       12.91716         9.02090         7.74948
   C       13.57332         7.80366         8.04537
   C       11.21218        10.28118         6.76234
   C       10.19951        10.41048         5.80252
   C       10.06448         9.50599         4.78189
   C       11.30943        11.29884         7.76595
   C       12.33841        11.75002         8.53068
   C       12.00199        12.60151         9.71085
   O       10.92963        13.10634         9.95275
   C       13.23051        12.65160        10.52437
   C       13.42500        13.20657        11.75602
   C       14.69674        13.10726        12.36381
   C       15.74427        12.42439        11.67990
   C       17.00780        12.32169        12.29379
   C       17.20290        12.88105        13.52580
   C       16.18670        13.55846        14.21323
   C       14.95337        13.66515        13.63292
   F       18.40990        12.78502        14.11282
   C       15.51478        11.86523        10.40112
   C       14.27743        11.98328         9.82753
   C       13.76775        11.54031         8.53226
   C       14.55112        11.16994         7.47014
   C       14.08380        10.96071         6.16123
   N       13.77869        10.77874         5.06844
   C       15.94767        10.98833         7.54042
   N       17.07874        10.79107         7.53298
   H       11.49417        -9.08257        -7.25067
   H       11.78110        -8.51269        -4.73341
   H       12.90575        -5.05201        -1.70202
   H       11.90226        -8.93481         1.08151
   H       11.66137       -10.04142        -0.28156
   H       10.28378        -9.18457         0.40591
   H       11.70724        -4.55289        -9.12812
   H        8.78400        -1.27151       -11.26101
   H        8.49417        -0.33025        -9.78620
   H        7.39785        -1.63885       -10.22181
   H       10.34601        -1.56842        -5.73454
   H        9.88245         0.54774        -4.76429
   H        9.73154         5.67907        -1.32672
   H       10.11911         8.54903        -1.65634
   H       11.32614         9.18227        -0.51314
   H        9.59467         9.22095        -0.08852
   H       11.96009        10.90707         1.83002
   H       12.83108         9.37574         1.55491
   H       12.37974         9.87000         3.20891
   H       10.77809         5.76780         4.85834
   H       10.53901         4.15404         3.03024
   H       14.29581         8.28344         4.59023
   H       13.32296         7.22824         3.53107
   H       14.49030         6.50804         4.66558
   H       13.92177         7.91472         9.07329
   H       14.43104         7.63835         7.39020
   H       12.89491         6.95317         7.97418
   H        9.54262        11.26495         5.85859
   H        9.29346         9.62591         4.03809
   H       10.36735        11.79612         7.98664
   H       12.61810        13.71508        12.26209
   H       17.81454        11.81014        11.79237
   H       16.39950        13.97982        15.18286
   H       14.15447        14.18199        14.14300
   H       16.32510        11.34894         9.91148
*
