# ORCA input file
# SCF done       -264.310864323679          0.000343876680
! CAM-B3LYP def2-SVP def2/J RIJCOSX Grid4 TightSCF
%maxcore 5000
%tddft
    Mode sTDDFT
    Ethresh 5.0
    maxcore 5000
end

%pal
  nprocs 6
  end
* xyz 0 1
   C       14.96211        -1.86689        -4.42001
   C       13.77836        -2.38777        -4.04122
   C       12.73689        -1.41562        -3.98358
   C       11.38102        -1.61286        -3.67429
   C       10.85112        -2.88389        -3.22151
   C        9.64813        -3.44796        -3.52985
   C        9.40545        -4.64082        -2.81514
   C       10.39392        -4.98832        -1.94145
   S       11.68545        -3.83673        -2.02348
   C       10.44849        -6.13572        -1.00015
  Cl        7.96851        -5.56518        -3.04982
   C       10.55470        -0.49551        -3.76391
   C       11.02363         0.79579        -4.10046
   C       12.38282         0.99526        -4.40333
   C       13.20390        -0.12895        -4.34090
   S       14.90421        -0.16552        -4.72156
   C       12.92026         2.29107        -4.76631
   C       14.11734         2.83400        -4.39819
   C       14.34232         4.10252        -4.97542
   C       13.34222         4.53752        -5.79490
   S       12.07479         3.36065        -5.85321
   C       13.24615         5.80742        -6.55777
  Cl       15.76959         5.01283        -4.66136
   C        9.99269         1.76961        -4.00486
   C        8.78629         1.25652        -3.65029
   S        8.85184        -0.47680        -3.40102
   C        7.57002         1.99993        -3.39420
   C        7.57548         3.22494        -2.79614
   F        8.65010         3.90281        -2.39416
   S        6.00986         3.90576        -2.51780
   C        5.32154         2.49052        -3.23824
   F        3.99564         2.43235        -3.35629
   C        6.22392         1.55837        -3.67163
   C        5.92449         0.34714        -4.39063
   C        4.71378        -0.22909        -4.50071
   C        4.46231        -1.40324        -5.27796
   C        5.31612        -2.11299        -6.07430
   C        4.71423        -3.20916        -6.73656
   C        5.30227        -4.10513        -7.65966
   C        6.73151        -4.16926        -7.86952
   C        7.43940        -4.61730        -8.95116
   C        8.83477        -4.62523        -8.73410
   C        9.22140        -4.19547        -7.49849
   S        7.82737        -3.78300        -6.56678
   C       10.58430        -4.01499        -6.94145
  Cl        9.95005        -5.13920        -9.94498
   C        4.42602        -4.98348        -8.29737
   C        3.05789        -5.10071        -7.95684
   C        2.48559        -4.24758        -6.99560
   C        3.33458        -3.30655        -6.42490
   S        2.84768        -2.07412        -5.29913
   C        1.07895        -4.32758        -6.65592
   C        0.01542        -4.48112        -7.49781
   C       -1.21942        -4.50943        -6.81366
   C       -1.11756        -4.38663        -5.45866
   S        0.54359        -4.22003        -5.00103
   C       -2.19776        -4.38026        -4.44026
  Cl       -2.72098        -4.68381        -7.63898
   C        2.42456        -6.16062        -8.65415
   C        3.23218        -6.80475        -9.54215
   S        4.84730        -6.12223        -9.54357
   C        2.83610        -7.84632       -10.46520
   C        1.52236        -8.10265       -10.75868
   F        0.45342        -7.50787       -10.22773
   S        1.24403        -9.28875       -11.98402
   C        2.95782        -9.43840       -12.13740
   F        3.45776       -10.30199       -13.02079
   C        3.69415        -8.66503       -11.28818
   C        5.14381        -8.72407       -11.33095
   C        5.96874        -8.72130       -10.27453
   C        7.39811        -8.76241       -10.39230
   C        8.16054        -9.08849       -11.47347
   C        9.55520        -9.01712       -11.23315
   C       10.59998        -9.29214       -12.13499
   C       10.32934        -9.80482       -13.46376
   C        9.44203       -10.77925       -13.81975
   C        9.45001       -11.04175       -15.20719
   C       10.32689       -10.27869       -15.92108
   S       11.17926        -9.20617       -14.86164
   C       10.59448       -10.28774       -17.38148
  Cl        8.43034       -12.23393       -15.92085
   C       11.89387        -9.08668       -11.66865
   C       12.18414        -8.64680       -10.35606
   C       11.13876        -8.36196        -9.45730
   C        9.84310        -8.58003        -9.91712
   S        8.37961        -8.32673        -9.00887
   C       11.41832        -7.86884        -8.12468
   C       12.38038        -6.97761        -7.74406
   C       12.39229        -6.75579        -6.35035
   C       11.45331        -7.46071        -5.65715
   S       10.51030        -8.42093        -6.74477
   C       11.19838        -7.47896        -4.19586
  Cl       13.50399        -5.67029        -5.60098
   C       13.59036        -8.62331       -10.11619
   C       14.31484        -9.00235       -11.18817
   S       13.35357        -9.41349       -12.56380
   H       15.89656        -2.37787        -4.54503
   H       13.63226        -3.42869        -3.82285
   H        8.96255        -3.05537        -4.25692
   H       10.42035        -5.78163         0.03025
   H       11.36628        -6.70640        -1.13052
   H        9.59542        -6.78754        -1.16880
   H       14.80478         2.37208        -3.71458
   H       12.41214         6.40946        -6.19722
   H       13.08304         5.60856        -7.61627
   H       14.16593         6.37481        -6.44029
   H       10.14648         2.81610        -4.18873
   H        6.77003        -0.10483        -4.88597
   H        3.85563         0.18394        -3.99151
   H        6.33969        -1.82592        -6.21718
   H        7.00435        -4.89403        -9.89270
   H       11.32213        -4.36963        -7.65573
   H       10.69497        -4.56413        -6.00770
   H       10.77638        -2.96240        -6.73011
   H        0.09399        -4.53224        -8.56800
   H       -3.16242        -4.49084        -4.92910
   H       -2.18897        -3.44631        -3.87937
   H       -2.06324        -5.19750        -3.73236
   H        1.40713        -6.44060        -8.46280
   H        5.55329        -8.83729       -12.32558
   H        5.57846        -8.66669        -9.26866
   H        7.74759        -9.37320       -12.42266
   H        8.83496       -11.32551       -13.12152
   H        9.95116       -11.01727       -17.86713
   H       11.63454       -10.54627       -17.57803
   H       10.40611        -9.30538       -17.81315
   H       13.03044        -6.46426        -8.42835
   H       10.16252        -7.21927        -3.98469
   H       11.85366        -6.76405        -3.70466
   H       11.38591        -8.47124        -3.78641
   H       14.02821        -8.36631        -9.16993
   H       15.38192        -9.07440       -11.26868
*
