# ORCA input file
# SCF done       -221.313870205047          0.000752516829
! CAM-B3LYP def2-SVP def2/J RIJCOSX Grid4 TightSCF
%maxcore 5000
%tddft
    Mode sTDDFT
    Ethresh 5.0
    maxcore 5000
end

%pal
  nprocs 6
  end
* xyz 0 1
   C       -2.51450        -3.54712         2.11199
   C       -3.18747        -4.32932         3.04934
   C       -4.54663        -3.94893         3.55952
   O       -5.33672        -4.76895         3.93279
   O       -4.83930        -2.64344         3.57790
   C       -2.63012        -5.53706         3.50026
   C       -3.27402        -6.34193         4.47419
   N       -3.67838        -7.05084         5.27787
   C       -1.39465        -5.97417         3.01076
   C       -0.74669        -5.18912         2.08388
   C       -1.28417        -3.96993         1.63620
   C       -0.35754        -3.37347         0.67155
   C       -0.47939        -2.10794         0.15197
   C       -1.52370        -1.22846         0.49939
   N       -2.34937        -0.48186         0.78261
   C        0.43004        -1.49069        -0.73174
   N        1.12428        -0.91609        -1.44360
   C        0.71403        -4.31910         0.46166
   C        0.53184        -5.44110         1.37977
   O        1.26024        -6.40345         1.54583
   C        1.70837        -4.20913        -0.48863
   C        2.78420        -5.04828        -0.77377
   C        3.66049        -4.79366        -1.84298
   C        4.65927        -5.73437        -1.94592
   C        4.57267        -6.73036        -0.93432
   S        3.24797        -6.50961         0.11107
   C        5.63622        -7.63695        -1.11930
   C        6.39621        -7.22859        -2.23673
   C        5.80607        -6.02361        -2.79314
   C        6.22821        -5.31558        -3.87962
   C        7.36143        -5.68213        -4.63677
   N        8.27901        -5.95891        -5.26563
   C        5.55316        -4.16109        -4.32976
   N        5.00761        -3.22473        -4.70472
   C        7.47472        -8.06633        -2.49498
   C        7.55290        -9.10666        -1.57905
   S        6.26784        -9.05406        -0.39378
   C        8.55889       -10.11857        -1.54406
   C        8.59886       -11.11438        -0.56420
   O        7.56416       -11.06564         0.30635
   C        7.61820       -11.60574         1.61116
   C        9.62637       -12.11611        -0.52548
   O        9.42212       -13.10267         0.40092
   C        9.80126       -14.42777         0.09737
   C       10.70799       -12.09664        -1.39576
   C       10.64578       -11.13395        -2.43637
   C        9.58913       -10.16042        -2.51863
   N        9.82969        -9.41027        -3.57410
   O       10.95549        -9.87700        -4.11516
   N       11.46238       -10.90846        -3.44588
   C       11.91676       -12.90280        -1.25930
   C       12.47614       -13.07629        -0.01619
   C       13.71468       -13.74310         0.12124
   C       14.50528       -14.02914         1.22255
   C       14.27737       -13.89307         2.69455
   C       13.22704       -12.86848         3.13200
   N       13.45244       -11.57579         2.50288
   C       13.90501       -15.27420         3.27915
   N       13.85545       -15.20989         4.72929
   C       15.71529       -14.64445         0.71312
   C       16.84140       -15.03545         1.33637
   C       17.99989       -15.59765         0.58281
   C       17.76985       -15.75564        -0.88349
   C       16.64464       -15.34299        -1.49510
   C       15.59584       -14.76047        -0.74409
   C       14.38084       -14.20947        -1.09277
   C       13.76282       -14.03455        -2.35223
   C       12.56620       -13.40226        -2.43216
   C       18.46631       -16.85823         1.26974
   C       18.34763       -18.08519         0.75999
   C       18.80929       -19.29711         1.38841
   C       18.74117       -20.50292         0.75269
   C       19.21135       -21.72160         1.26787
   C       19.92007       -21.75857         2.56132
   C       20.07282       -20.69237         3.37246
   S       19.48509       -19.12229         3.00750
   C       20.35932       -23.10067         2.71122
   C       19.95612       -23.84608         1.60313
   C       20.36310       -25.19609         1.69354
   C       21.05185       -25.43412         2.83980
   S       21.23210       -24.04237         3.85600
   C       19.21958       -22.99599         0.70643
   C       18.63589       -23.47210        -0.52139
   C       17.56495       -22.97579        -1.13716
   H       -2.96850        -2.64592         1.72898
   H       -4.12518        -2.06874         3.26870
   H       -0.96393        -6.90528         3.34617
   H        1.65271        -3.35055        -1.14752
   H        3.53421        -3.94487        -2.49180
   H        8.18426        -7.95509        -3.29421
   H        8.59349       -11.44716         2.07243
   H        7.38508       -12.67148         1.61101
   H        6.85314       -11.06659         2.17078
   H        9.06912       -15.06676         0.59350
   H       10.80109       -14.65561         0.47838
   H        9.78329       -14.61476        -0.97817
   H       12.01940       -12.61760         0.84327
   H       15.23275       -13.59495         3.14772
   H       13.25496       -12.83306         4.23237
   H       12.22984       -13.21712         2.84963
   H       14.39888       -11.25861         2.68460
   H       12.81853       -10.88404         2.88857
   H       14.61887       -16.02421         2.89853
   H       12.90916       -15.55109         2.92208
   H       14.78419       -15.05495         5.10815
   H       13.50643       -16.08064         5.11255
   H       16.96945       -14.94710         2.40707
   H       18.82210       -14.86929         0.70450
   H       18.58444       -16.19031        -1.44283
   H       16.52826       -15.44582        -2.56414
   H       14.25739       -14.39767        -3.24059
   H       12.08724       -13.24887        -3.38526
   H       18.90784       -16.71393         2.24662
   H       17.89354       -18.21954        -0.21296
   H       18.32525       -20.50603        -0.24538
   H       20.57788       -20.75176         4.32382
   H       20.16137       -25.95208         0.95623
   H       21.47939       -26.36074         3.17007
   H       19.11984       -24.34887        -0.93592
   H       16.99936       -22.15149        -0.73872
   H       17.19854       -23.40632        -2.05331
*
