# ORCA input file
# SCF done       -211.626386569649          0.000404654287
! CAM-B3LYP def2-SVP def2/J RIJCOSX Grid4 TightSCF
%maxcore 5000
%tddft
    Mode sTDDFT
    Ethresh 5.0
    maxcore 5000
end

%pal
  nprocs 6
  end
* xyz 0 1
   C        0.26953         1.16443         0.12456
   C       -0.41419         0.48089         1.12511
   C       -0.36396        -0.95900         1.22546
   N       -1.12640        -1.59084         2.13506
   C       -1.81519        -0.88552         2.98788
   C       -1.77802         0.55709         2.95895
   N       -1.12462         1.19109         2.02771
   C       -2.49224         1.29157         3.94117
   N       -3.07829         1.84499         4.75413
   C       -2.61811        -1.55499         3.94608
   N       -3.25840        -2.06999         4.74356
   C        0.42777        -1.72553         0.34927
   C        1.12574        -1.02773        -0.64453
   C        1.03008         0.41537        -0.76165
   N        1.77840         0.87550        -1.77573
   S        2.51754        -0.35337        -2.47208
   N        1.96374        -1.53844        -1.55676
   C        0.49296        -3.16805         0.47840
   C        0.41405        -4.00905        -0.64737
   C        0.48860        -5.44405        -0.52718
   N        0.33220        -6.20898        -1.61996
   C        0.22387        -5.64355        -2.79095
   C        0.18276        -4.21140        -2.91417
   N        0.22505        -3.45084        -1.85524
   C        0.05011        -3.60196        -4.18749
   N       -0.03171        -3.12665        -5.22612
   C        0.10270        -6.46775        -3.93802
   N        0.02999        -7.11827        -4.87772
   C        0.66631        -6.07455         0.72073
   C        0.73171        -5.23472         1.84246
   C        0.64094        -3.79553         1.72219
   N        0.78546        -3.19310         2.90981
   S        0.98578        -4.30566         4.03671
   N        0.93999        -5.60712         3.11191
   C        0.77397        -7.51259         0.83386
   C        0.11773        -8.20713         1.86983
   C        0.24637        -9.63379         2.02218
   N       -0.22315       -10.21819         3.13582
   C       -0.91959        -9.51999         3.98799
   C       -1.24958        -8.14632         3.70475
   N       -0.70354        -7.53447         2.69211
   C       -2.15356        -7.44466         4.54084
   N       -2.87436        -6.90734         5.25006
   C       -1.36880       -10.14171         5.17932
   N       -1.75956       -10.63578         6.13589
   C        0.91326       -10.42562         1.06604
   C        1.52508        -9.73990         0.00755
   C        1.48956        -8.29485        -0.08489
   N        2.20092        -7.85578        -1.13157
   S        2.77441        -9.11014        -1.93743
   N        2.19611       -10.27909        -1.01820
   C        0.96830       -11.86337         1.21529
   C        2.14031       -12.59549         0.95198
   C        2.17684       -14.02950         1.08530
   N        3.32620       -14.68527         0.84395
   C        4.37003       -14.03244         0.40501
   C        4.32702       -12.60199         0.27380
   N        3.25423       -11.93362         0.59323
   C        5.47442       -11.88259        -0.14708
   N        6.40057       -11.30986        -0.50070
   C        5.55481       -14.75907         0.12977
   N        6.50905       -15.35054        -0.09629
   C        1.04905       -14.77378         1.48413
   C       -0.12216       -14.04310         1.73875
   C       -0.15837       -12.60246         1.61147
   N       -1.38760       -12.12200         1.83313
   S       -2.36715       -13.33715         2.17692
   N       -1.32517       -14.53956         2.04370
   C        1.09698       -16.21634         1.57590
   C        1.82860       -16.98356         0.64773
   C        1.92809       -18.41893         0.76215
   N        2.72529       -19.10441        -0.08731
   C        3.37403       -18.45993        -1.01265
   C        3.18317       -17.04251        -1.20166
   N        2.42649       -16.36161        -0.38399
   C        3.78677       -16.36157        -2.28738
   N        4.27562       -15.80263        -3.15940
   C        4.24174       -19.16710        -1.88571
   N        4.94330       -19.70644        -2.61147
   C        1.25436       -19.11294         1.75989
   C        0.51271       -18.37219         2.67139
   C        0.44494       -16.92467         2.59688
   N       -0.24826       -16.41363         3.61942
   S       -0.78253       -17.60853         4.53363
   N       -0.16488       -18.84072         3.72908
   H        0.22079         2.23859         0.06543
   H        1.34851       -20.18256         1.84125
*
