# ORCA input file
# SCF done        -96.335126061206          0.000820423099
! CAM-B3LYP def2-SVP def2/J RIJCOSX Grid4 TightSCF
%maxcore 5000
%tddft
    Mode sTDDFT
    Ethresh 5.0
    maxcore 5000
end

%pal
  nprocs 6
  end
* xyz 0 1
   C        1.90964        -0.63845        -0.12126
   C        2.17112         0.69387         0.21293
   C        1.95142         0.96596         1.53953
   S        2.17704         2.51911         2.29546
   C        1.80024         2.12357         4.02545
   S        1.40618        -0.43854         2.39279
   C        1.48486        -1.40588         0.93937
   C        1.12813        -2.78248         1.00929
   C        1.19358        -3.64853        -0.02243
   C        0.84036        -5.04062         0.03229
   C        0.25128        -5.69087         1.12875
   N       -0.05187        -6.96879         1.12336
   C        0.21831        -7.66757         0.01996
   N        0.77095        -7.15707        -1.08184
   C        1.06898        -5.87893        -1.07181
   C       -0.12261        -9.08154         0.00972
   C       -0.82088        -9.69316         1.05613
   N       -1.14944       -10.96625         1.03268
   C       -0.78905       -11.67533        -0.03878
   N       -0.10442       -11.19503        -1.07918
   C        0.22202        -9.92192        -1.05434
   C       -1.18020       -13.07534        -0.08466
   C       -2.02656       -13.65190         0.86966
   N       -2.40694       -14.90621         0.80639
   C       -1.95783       -15.64583        -0.21529
   N       -1.12883       -15.19491        -1.16116
   C       -0.74886       -13.93852        -1.09611
   C       -2.43452       -17.01424        -0.26680
   C       -3.39385       -17.47808         0.67016
   C       -3.75138       -18.77550         0.47578
   S       -4.90881       -19.66701         1.43310
   C       -4.90853       -21.26985         0.58113
   S       -2.90495       -19.47445        -0.87407
   C       -2.05922       -17.98540        -1.18298
   C       -1.11801       -17.89636        -2.25933
   C       -0.83042       -18.89331        -3.09529
   H        2.02819        -1.02632        -1.11631
   H        2.51096         1.43985        -0.48151
   H        1.93831         3.04294         4.58520
   H        2.48556         1.35865         4.38055
   H        0.77125         1.78414         4.10527
   H        0.79423        -3.12394         1.97959
   H        1.55106        -3.30292        -0.98317
   H        0.00680        -5.16254         2.04134
   H        1.51399        -5.49022        -1.98063
   H       -1.12044        -9.12596         1.92721
   H        0.77536        -9.54106        -1.90222
   H       -2.40355       -13.06670         1.69791
   H       -0.07740       -13.59091        -1.86999
   H       -3.79269       -16.85473         1.44748
   H       -5.62429       -21.89409         1.10585
   H       -3.91640       -21.70863         0.63069
   H       -5.21353       -21.13164        -0.45149
   H       -0.64345       -16.93016        -2.35121
   H       -1.30313       -19.85959        -3.01236
   H       -0.11275       -18.77361        -3.88703
*
