# ORCA input file
# SCF done       -144.776544913898          0.000473738969
! CAM-B3LYP def2-SVP def2/J RIJCOSX Grid4 TightSCF
%maxcore 5000
%tddft
    Mode sTDDFT
    Ethresh 5.0
    maxcore 5000
end

%pal
  nprocs 6
  end
* xyz 0 1
   C      -10.75830        -7.01939         3.04897
   S      -11.84483        -6.30829         1.89997
   C      -10.68053        -5.11140         1.52257
   C       -9.51275        -5.27181         2.26112
   C       -9.56386        -6.36791         3.13797
   C       -8.59015        -4.19574         1.87869
   O       -7.48653        -3.96098         2.31485
   C       -9.34797        -3.41067         0.82044
   C      -10.58448        -3.98762         0.65216
   C       -8.86287        -2.27652         0.13753
   C       -7.59735        -1.78666         0.24835
   C       -7.06147        -0.66192        -0.43919
   C       -7.74435         0.43329        -0.93940
   O       -7.15225         1.31701        -1.82979
   C       -5.82083         1.14671        -2.04779
   C       -5.08526         0.10978        -1.40437
   C       -3.76580         0.12766        -1.71661
   S       -3.40120         1.41307        -2.80685
   C       -5.04622         1.93016        -2.83796
   O       -5.69278        -0.79940        -0.59765
   C       -9.05623         0.86710        -0.61351
   C       -9.75630         0.56721         0.51926
   C      -11.03621         1.06210         0.81255
   S      -11.84673         2.04411        -0.37617
   C      -13.25313         2.26132         0.60509
   C      -13.09671         1.59549         1.83845
   C      -11.85343         0.89299         1.95520
   C      -11.59662         0.13627         3.12857
   C      -10.33806        -0.64348         3.35305
   C      -12.56299         0.11074         4.10698
   C      -13.78074         0.79044         3.98370
   C      -14.05518         1.52462         2.86550
   C      -14.32807         3.09914         0.19223
   C      -14.69599         3.34532        -1.11812
   O      -15.66148         4.27837        -1.45162
   C      -16.29959         4.87497        -0.41009
   C      -15.97570         4.56674         0.94125
   C      -16.73343         5.24857         1.83553
   S      -17.85586         6.28526         1.03662
   C      -17.29706         5.78748        -0.51693
   O      -14.98928         3.68481         1.26018
   C      -14.19872         2.62540        -2.23440
   C      -14.50807         2.92408        -3.52577
   C      -14.06293         2.17296        -4.63610
   S      -14.58690         2.62775        -6.25122
   C      -13.70344         1.33331        -6.93431
   C      -13.03412         0.59246        -5.96130
   C      -13.23030         1.05642        -4.67049
   C      -12.31258        -0.49569        -6.66297
   O      -11.61063        -1.35820        -6.19440
   C      -12.64904        -0.29327        -8.11876
   C      -13.46701         0.79390        -8.23594
   C      -12.12679        -1.18139        -9.11571
   C      -12.35991        -1.10680       -10.42700
   H      -11.08110        -7.88727         3.58872
   H       -8.76680        -6.66400         3.79505
   H      -11.34983        -3.65951        -0.02706
   H       -9.56619        -1.78845        -0.52659
   H       -6.86568        -2.35353         0.80792
   H       -2.99759        -0.53313        -1.37431
   H       -5.34325         2.77066        -3.42902
   H       -9.45218         1.60635        -1.29894
   H       -9.29183        -0.07884         1.24085
   H       -9.46472         0.00678         3.33605
   H      -10.21561        -1.41823         2.59600
   H      -10.37439        -1.13005         4.32520
   H      -12.38125        -0.46076         5.00555
   H      -14.50520         0.72451         4.78118
   H      -14.99277         2.04257         2.76204
   H      -16.69341         5.20600         2.90365
   H      -17.72943         6.19224        -1.40759
   H      -13.58035         1.76986        -2.02631
   H      -15.13002         3.78306        -3.73271
   H      -12.79197         0.61847        -3.79330
   H      -13.87896         1.19465        -9.14384
   H      -11.49408        -1.96560        -8.71918
   H      -12.98494        -0.34087       -10.85346
   H      -11.93086        -1.81440       -11.11429
*
