# ORCA input file
# SCF done       -192.538744082578          0.000557697642
! CAM-B3LYP def2-SVP def2/J RIJCOSX Grid4 TightSCF
%maxcore 5000
%tddft
    Mode sTDDFT
    Ethresh 5.0
    maxcore 5000
end

%pal
  nprocs 6
  end
* xyz 0 1
   C        3.20077         1.73520         6.09412
   C        2.69228         2.10523         4.89999
   C        1.85183         3.26880         5.09845
   C        1.92261         3.53896         6.53382
   C        2.71948         2.63706         7.13241
   F        1.27279         4.55105         7.12879
   C        1.14294         3.97277         4.16382
   C        0.30948         5.11530         4.36031
   C       -0.22097         5.50951         3.14878
   C        0.28264         4.59738         2.11392
   C        1.07642         3.70466         2.72070
   F        1.73059         2.70093         2.12740
   C       -1.10125         6.59413         2.95702
   C       -1.63091         6.97478         1.75607
   C       -2.52835         8.04400         1.57259
   C       -3.08352         8.42847         0.36167
   C       -3.95491         9.52498         0.57210
   C       -3.88904         9.79284         2.01226
   C       -3.05438         8.93191         2.61299
   F       -4.57936        10.77125         2.61328
   C       -4.72349        10.20654        -0.35263
   C       -5.61242        11.28488        -0.12803
   C       -6.19057        11.65743        -1.33167
   C       -5.64991        10.78926        -2.38061
   C       -4.79160         9.94202        -1.79444
   F       -4.08164         8.98331        -2.40097
   C       -7.14060        12.66736        -1.58422
   C       -7.66697        13.48319        -0.62275
   C       -8.62747        14.48757        -0.84422
   C       -9.25018        14.88218        -2.02668
   C      -10.15637        15.91225        -1.82617
   C      -10.23927        16.32394        -0.47494
   S       -9.19247        15.43156         0.53470
   C      -11.18309        17.36231        -0.37655
   C      -11.71020        17.62110        -1.66397
   C      -11.07907        16.71670        -2.61224
   C      -11.30469        16.63605        -3.95498
   C      -12.23149        17.47030        -4.61534
   N      -12.98133        18.14595        -5.15874
   C      -10.62491        15.70974        -4.77348
   N      -10.07376        14.95325        -5.43596
   C      -12.65695        18.63439        -1.66807
   C      -12.86873        19.16295        -0.39711
   S      -11.86391        18.37498         0.81615
   C      -13.74878        20.19644        -0.02202
   C      -14.59928        20.92058        -0.84004
   C      -15.29915        21.86596        -0.05022
   C      -14.81454        21.66458         1.31801
   C      -13.89978        20.68268         1.34750
   F      -15.24329        22.37456         2.36728
   C      -16.23942        22.79596        -0.45331
   C      -16.92991        23.74688         0.33372
   C      -17.77955        24.48563        -0.47769
   C      -17.63658        23.99078        -1.85013
   C      -16.73084        23.00213        -1.82068
   F      -16.31054        22.28363        -2.86784
   C      -18.61742        25.52518        -0.03796
   C      -19.45731        26.25336        -0.83615
   C      -20.28860        27.29802        -0.38983
   C      -21.14514        28.03753        -1.18702
   C      -21.81572        29.00465        -0.38829
   C      -21.29865        28.79757         0.96876
   C      -20.40326        27.79954         0.98335
   F      -21.68853        29.52204         2.02385
   C      -22.74720        29.93762        -0.77770
   C      -23.42026        30.91235         0.02123
   C      -24.26880        31.63965        -0.77228
   C      -24.16203        31.13639        -2.14715
   C      -23.26651        30.13888        -2.13494
   F      -22.87735        29.40821        -3.18901
   C      -25.11389        32.70930        -0.33210
   C      -25.93167        33.41796        -1.11456
   H        3.86035         0.90937         6.28540
   H        2.86229         1.63704         3.95103
   H        2.96758         2.57455         8.17409
   H        0.12825         5.58447         5.30741
   H        0.05131         4.64462         1.06837
   H       -1.36500         7.14592         3.84879
   H       -1.36370         6.42655         0.86295
   H       -2.89084         7.96656        -0.58683
   H       -2.81270         8.89327         3.65631
   H       -5.79943        11.72645         0.83005
   H       -5.91188        10.84340        -3.41924
   H       -7.46277        12.78252        -2.61002
   H       -7.33673        13.36211         0.39935
   H       -9.04109        14.42804        -2.97739
   H      -13.18131        18.98931        -2.53583
   H      -14.71590        20.79695        -1.89789
   H      -13.36635        20.30645         2.19885
   H      -16.81284        23.87682         1.39174
   H      -18.16067        24.35741        -2.70998
   H      -18.57453        25.74650         1.01981
   H      -19.50576        26.03069        -1.89327
   H      -21.28551        27.90691        -2.24213
   H      -19.86620        27.43179         1.83484
   H      -23.27458        31.04521         1.07526
   H      -24.70491        31.50520        -2.99429
   H      -25.05652        32.93297         0.72580
   H      -26.01961        33.23116        -2.17079
   H      -26.54156        34.21087        -0.71773
*
