# ORCA input file
# SCF done       -162.690734069543          0.000443743700
! CAM-B3LYP def2-SVP def2/J RIJCOSX Grid4 TightSCF
%maxcore 5000
%tddft
    Mode sTDDFT
    Ethresh 5.0
    maxcore 5000
end

%pal
  nprocs 6
  end
* xyz 0 1
   C        3.54460         0.92379        -1.23133
   O        2.93022         1.25283        -0.01255
   C        3.60563         2.23608         0.74831
   C        4.88966         1.70527         1.39723
   C        4.56367         0.46714         2.22797
   C        3.53224         0.80984         3.25035
   C        3.37397         0.18346         4.48127
   C        4.07268        -0.90904         5.06616
   C        4.67021        -1.91870         4.39833
   N        5.36425        -2.93563         4.99485
   C        5.71862        -3.00961         6.33296
   C        5.54022        -4.20404         7.07707
   C        5.89074        -4.07850         8.38111
   S        6.45621        -2.50395         8.75365
   C        6.26329        -1.98265         7.09751
   C        6.74471        -0.69396         6.73475
   C        7.03340        -0.30144         5.47194
   C        7.54617         0.97177         5.11553
   O        7.73840         1.96825         6.03248
   C        8.26197         3.06210         5.40638
   C        8.58947         4.24573         6.11160
   C        8.37415         4.39723         7.43889
   N        8.67923         5.47592         8.19989
   C        9.40734         6.60847         7.85435
   C        9.20884         7.83732         8.54765
   C       10.02983         8.82119         8.11038
   S       11.06747         8.28514         6.85211
   C       10.39499         6.70665         6.91453
   C        8.40501         2.76874         4.06421
   C        7.94668         1.43628         3.88149
   C        8.10469         1.07674         2.47596
   O        7.84398         0.05721         1.88134
   N        8.64671         2.22077         1.90210
   C        8.86322         3.28708         2.78462
   O        9.32806         4.35384         2.46744
   S        2.11362         0.93115         5.41050
   C        1.76760         2.06524         4.12664
   C        0.70551         2.97600         4.21537
   C       -0.19986         3.01459         5.24105
   C       -1.28361         3.89930         5.25827
   C       -2.33705         3.92376         6.14076
   C       -3.16400         5.14217         6.25881
   O       -3.15430         6.11077         5.53010
   C       -3.97147         4.94745         7.48687
   C       -4.85071         5.81907         8.09392
   C       -5.47627         5.41387         9.26713
  Cl       -6.58028         6.47192        10.05265
   C       -5.20996         4.15397         9.80887
  Cl       -5.97933         3.67092        11.26822
   C       -4.32944         3.27333         9.18868
   C       -3.70851         3.67237         8.01810
   C       -2.78584         2.97010         7.12179
   C       -2.59087         1.60978         7.11480
   C       -1.98406         0.88773         6.06669
   N       -1.56544         0.22503         5.22733
   C       -3.08499         0.73985         8.10669
   N       -3.43494        -0.01862         8.89510
   C        2.64036         1.86734         3.05451
   C        2.62792         2.72064         1.82611
   H        2.85058         0.26796        -1.75386
   H        4.49574         0.39897        -1.08967
   H        3.72373         1.82036        -1.83831
   H        3.85576         3.08543         0.08820
   H        5.30887         2.48860         2.03235
   H        5.62955         1.45349         0.63721
   H        5.46550         0.07857         2.70168
   H        4.16790        -0.30270         1.55938
   H        4.03841        -0.95426         6.14610
   H        4.61098        -1.99742         3.32389
   H        5.40632        -3.80993         4.49098
   H        5.14743        -5.10931         6.64867
   H        5.83837        -4.81840         9.15439
   H        6.93657        -0.01024         7.55067
   H        6.94061        -0.97971         4.63950
   H        9.00261         5.03270         5.50410
   H        7.89507         3.59425         7.98370
   H        8.27353         5.50974         9.12332
   H        8.48031         7.96466         9.32862
   H       10.08721         9.83600         8.44835
   H       10.79312         5.94801         6.27416
   H        8.88531         2.27684         0.92263
   H        0.56993         3.64732         3.37732
   H       -0.06821         2.32696         6.06442
   H       -1.27815         4.71004         4.53668
   H       -5.04833         6.78922         7.66623
   H       -4.14737         2.30965         9.63564
   H        2.87881         3.74846         2.10319
   H        1.62631         2.72252         1.39015
*
