# ORCA input file
# SCF done       -156.818719280185          0.000595314703
! CAM-B3LYP def2-SVP def2/J RIJCOSX Grid4 TightSCF
%maxcore 5000
%tddft
    Mode sTDDFT
    Ethresh 5.0
    maxcore 5000
end

%pal
  nprocs 6
  end
* xyz 0 1
   C       12.26677         3.48726        -1.93352
   C       11.10191         2.87096        -2.12637
   C       10.96119         1.69859        -2.87822
   C       10.82208         0.68344        -3.53274
   C       10.65777        -0.43182        -4.26555
   C       10.53907        -1.44152        -4.93572
   C       10.33452        -2.57118        -5.70721
   C       11.27418        -3.43551        -6.21617
   C       10.70397        -4.46455        -6.97361
  Cl       11.65558        -5.67980        -7.72742
   C        9.32237        -4.41721        -7.06473
   C        8.44878        -5.28779        -7.76897
   S        9.03635        -6.62690        -8.71343
   C        7.43076        -7.07884        -9.20937
   C        7.25146        -8.18720       -10.09038
   C        6.06096        -8.56398       -10.59392
   C        5.83209        -9.66325       -11.50287
   C        6.70221       -10.74473       -11.62098
   C        6.44741       -11.81686       -12.46330
   O        7.35567       -12.84040       -12.43344
   C        6.86412       -14.16033       -12.28192
   C        5.29445       -11.80431       -13.27091
   C        5.03669       -12.78863       -14.29954
   C        5.93843       -13.41237       -15.12107
   C        5.32732       -14.24147       -16.07361
  Cl        6.23224       -15.13849       -17.22707
   C        3.94680       -14.26681       -16.00594
   C        3.03029       -14.98098       -16.82292
   S        3.57692       -16.00073       -18.12817
   C        1.94061       -16.47265       -18.54006
   C        1.60485       -17.28762       -19.66761
   S        0.17348       -16.82636       -20.53657
   C        0.40007       -18.02409       -21.71635
   C        1.52174       -18.78520       -21.48081
   C        2.00040       -19.87200       -22.27444
   C        1.30040       -20.27050       -23.49888
   O        0.29048       -19.76817       -23.93888
   O        1.89386       -21.29835       -24.13747
   C        3.12780       -20.53852       -21.85140
   C        3.77205       -20.19740       -20.66258
   C        3.33798       -19.15967       -19.86472
   O        3.98418       -18.97842       -18.69849
   C        2.22173       -18.38106       -20.28613
   C        1.04225       -15.82407       -17.72825
   C        1.64974       -15.00502       -16.76811
  Cl        0.73623       -14.12020       -15.61631
   S        3.40717       -13.22451       -14.71936
   C        4.39791       -10.74336       -13.12004
   C        4.64348        -9.69096       -12.26289
   O        3.71379        -8.67935       -12.16041
   C        4.03420        -7.49008       -12.86880
   C        3.95524        -7.66425       -14.38120
   C        6.49733        -6.23255        -8.65730
   C        7.06673        -5.23826        -7.85650
  Cl        6.11124        -4.05553        -7.05590
   S        8.72024        -3.04898        -6.16945
   H       12.33533         4.38815        -1.34895
   H       13.18186         3.10812        -2.35584
   H       10.18531         3.26190        -1.69999
   H       12.33079        -3.33094        -6.05297
   H        8.15470        -8.71067       -10.37152
   H        5.17379        -8.00546       -10.32928
   H        7.59208       -10.79178       -11.01359
   H        6.92402       -14.71606       -13.22128
   H        5.83076       -14.16581       -11.93005
   H        7.49954       -14.64718       -11.53992
   H        6.99992       -13.25137       -15.07482
   H       -0.28753       -18.12443       -22.53061
   H        1.38372       -21.51164       -24.93383
   H        3.50827       -21.35819       -22.43935
   H        4.62504       -20.76339       -20.32461
   H        3.63522       -18.22496       -18.20494
   H       -0.02207       -15.94822       -17.80545
   H        3.49366       -10.73203       -13.71026
   H        5.03633        -7.13768       -12.58719
   H        3.29272        -6.76205       -12.53066
   H        4.70120        -8.38026       -14.72052
   H        4.13803        -6.71006       -14.86744
   H        2.96962        -8.02345       -14.66644
   H        5.43818        -6.31403        -8.81270
*
