# ORCA input file
# SCF done       -126.291575699185          0.000518791544
! CAM-B3LYP def2-SVP def2/J RIJCOSX Grid4 TightSCF
%maxcore 5000
%tddft
    Mode sTDDFT
    Ethresh 5.0
    maxcore 5000
end

%pal
  nprocs 6
  end
* xyz 0 1
   C        8.86659         0.64205         2.41918
   C        7.66761         0.79629         2.97028
   C        6.52919         1.50143         2.39690
   C        5.29247         1.47247         3.09848
   C        4.18638         2.11015         2.63312
   C        4.23648         2.83378         1.41937
   C        3.19827         3.51549         0.78342
   C        1.84855         3.73075         1.17845
   S        1.36218         3.52932         2.84591
   C       -0.27157         4.01713         2.50070
   C       -1.28876         4.08331         3.49485
   S       -2.89758         4.57274         3.01625
   C       -3.46487         4.41952         4.62959
   C       -2.48406         4.02023         5.47759
   C       -1.23393         3.82333         4.84792
   C       -0.01409         3.38519         5.58519
   C       -0.40026         4.30700         1.16376
   C        0.77281         4.15803         0.41284
   C        0.80564         4.42672        -1.05486
   S        3.78210         4.20610        -0.70646
   C        5.36926         3.54558        -0.51767
   N        6.35737         3.93432        -1.41038
   C        6.39803         3.62155        -2.85019
   C        7.48320         2.51358        -2.93886
   N        8.13969         2.56766        -1.63256
   N        7.66593         3.73752        -0.98277
   C        8.45410         4.85698        -0.81377
   C        7.90286         6.07978        -0.47616
   C        8.69629         7.19565        -0.18339
   C       10.06606         7.15106        -0.20360
   C       10.66900         5.93015        -0.53410
   N       11.97421         5.66482        -0.62134
   S       12.17718         4.13051        -1.04047
   N       10.61993         3.71079        -1.14363
   C        9.86881         4.77194        -0.84109
   C        6.92080         1.10660        -3.19817
   C        6.07921         0.57117        -2.03962
   C        6.21574         1.15683        -4.55719
   N        5.46410        -0.04350        -4.86042
   S        4.27706         0.42593        -6.01043
   N        3.99328         1.95180        -5.26321
   C        5.27389         2.41567        -4.75442
   C        5.06666         3.29428        -3.51755
   C        4.35250         4.58209        -3.93135
   C        5.47550         2.85523         0.68837
   C        6.60407         2.18666         1.21065
   H        9.64750         0.10080         2.92533
   H        9.12097         1.04031         1.45193
   H        7.48136         0.36073         3.94433
   H        5.23958         0.92208         4.02687
   H        3.26272         2.06032         3.18564
   H       -4.49125         4.63654         4.84784
   H       -2.63950         3.86769         6.53127
   H       -0.23692         3.27916         6.64366
   H        0.79189         4.10926         5.46631
   H        0.34426         2.42852         5.20486
   H       -1.33544         4.62419         0.73549
   H       -0.20805         4.55139        -1.42677
   H        1.27911         3.60746        -1.59404
   H        1.36631         5.33683        -1.26998
   H        6.80636         4.52627        -3.32474
   H        8.17423         2.75325        -3.75942
   H        9.15870         2.58701        -1.66536
   H        6.82889         6.17259        -0.44517
   H        8.19879         8.12190         0.06202
   H       10.67712         8.00898         0.01912
   H        7.78101         0.43560        -3.29562
   H        5.08620         1.00950        -1.99512
   H        6.58967         0.79066        -1.10597
   H        5.97829        -0.50924        -2.11577
   H        6.98737         1.22724        -5.33499
   H        5.01883        -0.43275        -4.03413
   H        3.31156         1.84789        -4.51462
   H        5.71937         3.03010        -5.54648
   H        4.43012         2.75573        -2.80986
   H        4.93593         5.10836        -4.68351
   H        4.21835         5.23841        -3.07614
   H        3.37903         4.35395        -4.35600
   H        7.53133         2.21703         0.66799
*
