# ORCA input file
# SCF done       -210.952950351039          0.000338097074
! CAM-B3LYP def2-SVP def2/J RIJCOSX Grid4 TightSCF
%maxcore 5000
%tddft
    Mode sTDDFT
    Ethresh 5.0
    maxcore 5000
end

%pal
  nprocs 6
  end
* xyz 0 1
   C       -2.80259         2.79136         1.40478
   C       -2.60592         2.01978         0.26532
   N       -3.05272         0.78157         0.17665
   C       -3.70864         0.28691         1.23241
   C       -3.90032         1.07376         2.37654
   N       -3.45107         2.31028         2.45664
   C       -4.19555        -1.06752         1.12730
   C       -4.05390        -1.89491         0.05525
   C       -4.64135        -3.17100         0.24020
   C       -4.71689        -4.23616        -0.67988
   C       -4.08703        -4.18871        -1.98365
   C       -4.56990        -4.67558        -3.16500
   C       -3.66509        -4.50762        -4.23480
   C       -2.48714        -3.91057        -3.89024
   S       -2.48760        -3.53134        -2.20239
   C       -1.31757        -3.59813        -4.74954
  Cl       -4.03176        -5.01660        -5.83785
   C       -5.42716        -5.35905        -0.26899
   C       -6.04416        -5.47255         1.00191
   C       -5.96535        -4.41049         1.92410
   C       -5.25640        -3.28530         1.51171
   S       -5.06463        -1.82463         2.44004
   C       -6.59567        -4.45842         3.22752
   C       -6.11847        -3.96375         4.40738
   C       -7.02342        -4.13212         5.47773
   C       -8.19764        -4.73710         5.13690
   S       -8.19224        -5.12541         3.45006
   C       -9.36036        -5.07047         5.99751
  Cl       -6.65905        -3.60893         7.07725
   C       -6.64566        -6.74064         1.18212
   C       -6.51622        -7.56885         0.10471
   S       -5.63009        -6.81643        -1.20442
   C       -7.02213        -8.89067        -0.03314
   C       -6.86789        -9.75223        -1.09892
   C       -7.51986       -10.96999        -0.88517
   C       -8.17541       -11.02612         0.35420
   S       -7.98856        -9.59070         1.25765
   C       -8.81190       -12.28975         0.47587
   C       -8.55506       -13.03174        -0.68711
   C       -7.73445       -12.22876        -1.58139
   C       -7.26947       -12.58493        -2.81319
   C       -6.47656       -11.72104        -3.59783
   N       -5.82935       -11.02496        -4.23910
   C       -7.55171       -13.84337        -3.38458
   N       -7.78105       -14.86532        -3.85180
   C       -9.14813       -14.29532        -0.66750
   C       -9.85370       -14.51534         0.49990
   S       -9.78250       -13.14301         1.58993
   C      -10.59163       -15.67916         0.85674
   C      -10.68315       -16.84933         0.15697
   C      -11.52007       -17.81284         0.76822
   C      -11.80489       -19.12085         0.32690
   C      -11.29041       -19.65678        -0.91643
   C      -10.86576       -20.93127        -1.16482
   C      -10.47414       -21.12542        -2.50657
   C      -10.60190       -20.02214        -3.29970
   S      -11.21657       -18.69815        -2.37189
   C      -10.29717       -19.87135        -4.74441
  Cl       -9.88134       -22.63644        -3.08097
   C      -12.63527       -19.88250         1.14576
   C      -13.18731       -19.40400         2.35932
   C      -12.87962       -18.10502         2.81283
   C      -12.06426       -17.33970         1.98903
   S      -11.53586       -15.71599         2.32978
   C      -13.38490       -17.61356         4.07831
   C      -13.47858       -18.28724         5.26284
   C      -14.01541       -17.49262         6.29792
   C      -14.33839       -16.22020         5.92404
   S      -13.96927       -15.98118         4.25131
   C      -14.93716       -15.13864         6.74669
  Cl      -14.23452       -18.08378         7.90051
   C      -14.07025       -20.34536         2.94343
   C      -14.18374       -21.50114         2.23202
   S      -13.19533       -21.49343         0.79127
   C      -15.00476       -22.63766         2.57477
   C      -15.07790       -23.78816         1.77757
   N      -15.83294       -24.81747         2.10581
   C      -16.53084       -24.72679         3.22964
   C      -16.46633       -23.59050         4.02789
   N      -15.71225       -22.55634         3.70735
   H       -2.44099         3.80643         1.48517
   H       -2.07893         2.39808        -0.60012
   H       -4.42787         0.69152         3.24062
   H       -3.55218        -1.57306        -0.83743
   H       -5.54650        -5.10508        -3.28847
   H       -0.50879        -4.30701        -4.56883
   H       -0.94220        -2.59872        -4.53851
   H       -1.60504        -3.66119        -5.79626
   H       -5.14528        -3.52632         4.52886
   H       -9.49498        -6.15024         6.05987
   H      -10.27520        -4.64192         5.59052
   H       -9.19841        -4.67801         6.99816
   H       -7.14810        -7.04515         2.08179
   H       -6.30683        -9.49150        -1.97834
   H       -9.08186       -15.01782        -1.45919
   H      -10.15377       -17.01877        -0.76079
   H      -10.79370       -21.70023        -0.41857
   H       -9.68656       -20.70620        -5.07954
   H       -9.76608       -18.93943        -4.92894
   H      -11.21673       -19.85665        -5.33061
   H      -13.14099       -19.29627         5.41025
   H      -16.02631       -15.17770         6.69628
   H      -14.61450       -14.16398         6.38882
   H      -14.64123       -15.25853         7.78690
   H      -14.63330       -20.17831         3.84200
   H      -14.51331       -23.87262         0.85830
   H      -17.14483       -25.57845         3.48514
   H      -17.02910       -23.50161         4.94723
*
