# ORCA input file
# SCF done       -231.110318541392          0.000381108946
! CAM-B3LYP def2-SVP def2/J RIJCOSX Grid4 TightSCF
%maxcore 5000
%tddft
    Mode sTDDFT
    Ethresh 5.0
    maxcore 5000
end

%pal
  nprocs 6
  end
* xyz 0 1
   C       -4.24175        -1.21169         3.02417
   C       -2.93196        -0.95818         3.34400
   C       -2.09956        -1.85816         4.04215
   N       -1.36721        -2.54079         4.60444
   C       -2.21184         0.21378         3.03319
   N       -1.54554         1.12734         2.82795
   C       -4.96536        -2.43411         3.35413
   C       -6.27728        -2.34403         2.82532
   C       -7.21040        -3.34065         2.97786
   C       -6.83429        -4.48245         3.69133
   C       -5.52291        -4.56476         4.21773
   C       -4.57793        -3.55782         4.05995
   S       -5.27968        -6.05923         5.06621
   C       -6.90140        -6.54938         4.71769
   C       -7.59867        -5.64316         3.99836
   C       -6.43690        -1.05285         2.13707
   O       -7.43383        -0.66665         1.55830
   C       -5.15595        -0.34163         2.30352
   C       -4.88407         0.93562         1.90107
   C       -5.69438         1.88513         1.24474
   C       -5.25538         3.17919         1.02742
   C       -6.19975         4.01025         0.40835
   C       -6.06384         5.37746         0.06351
   C       -4.87953         6.12739         0.41981
   C       -4.17362         6.09495         1.59095
   C       -3.06188         6.95924         1.59691
   C       -2.90627         7.64936         0.43390
   S       -4.15654         7.25161        -0.69894
   C       -1.84727         8.62720         0.07258
   C       -7.13468         5.94627        -0.60875
   C       -8.31280         5.23113        -0.95189
   C       -8.44776         3.86972        -0.60900
   C       -7.38721         3.29790         0.09192
   S       -7.32003         1.64795         0.64128
   C       -9.61064         3.08833        -0.97141
   C      -10.22665         2.10143        -0.25102
   C      -11.30990         1.51026        -0.92770
   C      -11.51993         2.02291        -2.17153
   S      -10.37705         3.27267        -2.52835
   C      -12.55859         1.64935        -3.16630
   C       -9.27698         6.06944        -1.55883
   C       -8.86965         7.36678        -1.68034
   S       -7.25646         7.62662        -1.05844
   C       -9.59072         8.49761        -2.16518
   O       -9.15953         9.71775        -1.80536
   C      -10.00280        10.65451        -2.30120
   C      -11.00036        10.01599        -3.03711
   C      -10.72747         8.62637        -2.95215
   C      -11.48671         7.53454        -3.61167
   F      -10.67384         6.64431        -4.21793
   F      -12.23720         6.81392        -2.75234
   F      -12.32040         7.97390        -4.55872
   O      -12.05270        10.58494        -3.67499
   C      -11.75245        11.15930        -4.93938
   C       -9.76331        12.01118        -1.94723
   C      -10.61729        13.03033        -2.19627
   C      -10.44814        14.39220        -1.79542
   C       -9.35113        14.93260        -1.08462
   C       -9.33325        16.30205        -0.65581
   N       -8.23189        16.79792        -0.04791
   C       -7.23533        16.01224         0.23343
   C       -7.28668        14.62488        -0.11026
   N       -8.29913        14.14168        -0.77201
   C       -6.17305        13.69152         0.23072
   C       -6.04000        16.61422         0.89460
   C      -10.41788        17.17286        -0.87071
   C      -11.49717        16.66049        -1.60335
   C      -11.49909        15.29461        -2.07232
   N      -12.62383        15.00144        -2.73227
   S      -13.57232        16.29518        -2.73875
   N      -12.63422        17.29298        -1.91356
   C      -10.42923        18.51458        -0.32604
   C      -10.02534        18.76793         0.99601
   C      -10.00515        20.10184         1.52941
   N       -9.53910        20.31329         2.78843
   C       -9.14372        19.30013         3.49909
   C       -9.25959        17.95787         2.99925
   N       -9.69027        17.72862         1.79544
   C       -8.91374        16.77851         3.84701
   C       -8.60409        19.57490         4.86296
   C      -10.42978        21.19141         0.77992
   C      -10.85585        20.95498        -0.52090
   C      -10.84574        19.61912        -1.08333
   N      -11.22586        19.62034        -2.36555
   S      -11.59047        21.11737        -2.79308
   N      -11.27279        21.86481        -1.41347
   H       -8.20048        -3.23875         2.56127
   H       -3.59374        -3.67004         4.48270
   H       -7.23715        -7.50199         5.07892
   H       -8.61952        -5.77619         3.68888
   H       -3.89937         1.32189         2.13633
   H       -4.26613         3.49894         1.30199
   H       -4.46866         5.50459         2.43992
   H       -2.39901         7.06316         2.43758
   H       -1.18195         8.78452         0.91804
   H       -2.28670         9.58163        -0.21530
   H       -1.26131         8.26338        -0.77130
   H       -9.93820         1.82741         0.74713
   H      -11.91281         0.72667        -0.50447
   H      -13.18435         0.85324        -2.77005
   H      -12.09894         1.30824        -4.09368
   H      -13.18724         2.50731        -3.40365
   H      -10.25331         5.73116        -1.84456
   H      -11.50050        10.38140        -5.66653
   H      -10.92837        11.87457        -4.86609
   H      -12.65963        11.67061        -5.25233
   H       -8.85066        12.19621        -1.40184
   H      -11.55229        12.83713        -2.70397
   H       -6.02679        13.65702         1.30941
   H       -5.24278        14.02985        -0.22332
   H       -6.40640        12.69434        -0.13145
   H       -6.22202        17.67129         1.06617
   H       -5.15772        16.49877         0.26647
   H       -5.84391        16.12046         1.84518
   H       -7.87504        16.83407         4.16947
   H       -9.06690        15.86909         3.27273
   H       -9.54137        16.75089         4.73671
   H       -8.61823        20.64542         5.04530
   H       -7.58237        19.20730         4.94687
   H       -9.20593        19.07211         5.61844
   H      -10.40212        22.18525         1.19370
*
