# ORCA input file
# SCF done       -215.264755891002          0.000685722682
! CAM-B3LYP def2-SVP def2/J RIJCOSX Grid4 TightSCF
%maxcore 5000
%tddft
    Mode sTDDFT
    Ethresh 5.0
    maxcore 5000
end

%pal
  nprocs 6
  end
* xyz 0 1
   C       -4.43214        -1.77681        -0.95296
   C       -4.59151        -2.47445         0.21692
   C       -4.24330        -3.83187         0.38205
   N       -3.98398        -4.93129         0.58765
   C       -5.11157        -1.96447         1.42479
   N       -5.51877        -1.63871         2.44884
   C       -3.87671        -2.32049        -2.18675
   C       -3.84042        -1.29298        -3.16277
   C       -3.36742        -1.49441        -4.43685
   C       -2.90923        -2.77284        -4.76801
   C       -2.95010        -3.79439        -3.78872
   C       -3.42663        -3.58971        -2.49929
   S       -2.33779        -5.29153        -4.41730
   C       -2.03997        -4.55351        -5.95256
   C       -2.37891        -3.24661        -6.00076
   C       -4.37912        -0.05261        -2.58352
   O       -4.48217         1.01928        -3.14807
   C       -4.76459        -0.38269        -1.19868
   C       -5.35816         0.46259        -0.30543
   C       -5.73609         1.81647        -0.43301
   C       -6.35688         2.48826         0.60457
   C       -6.67146         3.82499         0.31955
   C       -7.34309         4.76526         1.14030
   C       -7.72042         4.47875         2.50682
   C       -8.82767         4.91167         3.18339
   C       -8.84222         4.49401         4.52971
   C       -7.75430         3.75948         4.90739
   S       -6.68391         3.55895         3.56654
   C       -7.46038         3.15507         6.23104
  Cl      -10.12473         4.88766         5.60786
   C       -7.60054         6.00353         0.56724
   C       -7.19639         6.35705        -0.74758
   C       -6.53204         5.41909        -1.56074
   C       -6.27771         4.17064        -1.00095
   S       -5.51775         2.84455        -1.83116
   C       -6.15153         5.73921        -2.92210
   C       -6.88715         6.39396        -3.86871
   C       -6.20272         6.51838        -5.09627
   C       -4.95038         5.97497        -5.10082
   S       -4.59747         5.27857        -3.55768
   C       -3.95805         5.94130        -6.20499
  Cl       -6.90367         7.28905        -6.46746
   C       -7.49535         7.70591        -1.05205
   C       -8.12768         8.36716        -0.03667
   S       -8.38040         7.34562         1.36328
   C       -8.58648         9.71504        -0.01908
   C       -8.43204        10.69135        -0.98291
   F       -7.77557        10.49799        -2.13400
   C       -9.02576        11.91632        -0.64972
   F       -8.98133        12.98477        -1.46079
   C       -9.65935        11.91652         0.57746
   S       -9.49203        10.35535         1.31914
   C      -10.37338        12.97133         1.21239
   C      -10.55908        14.24712         0.76333
   C      -11.33792        15.06489         1.62138
   C      -11.77154        14.34141         2.78354
   S      -11.15534        12.69541         2.74719
   C      -12.57528        14.89200         3.76616
   O      -13.05587        14.32862         4.90584
   C      -12.77345        12.98951         5.23295
   C      -12.96716        16.23537         3.57893
   C      -12.52834        16.94798         2.45076
   C      -11.71590        16.41047         1.45903
   O      -11.42187        17.28447         0.46119
   C      -10.45493        17.02060        -0.52498
   S      -13.12775        18.57834         2.44894
   C      -13.96941        18.29645         3.96214
   C      -13.78464        17.02200         4.42312
   C      -14.73511        19.33669         4.56436
   C      -15.48493        19.27504         5.71639
   C      -16.10569        20.49370         6.00736
   C      -15.83292        21.49903         5.07732
   S      -14.79418        20.92671         3.82395
   C      -16.47471        22.70168         5.40672
   C      -17.23152        22.60343         6.58318
   S      -17.15891        21.01804         7.30039
   C      -17.81973        23.85522         6.81351
   C      -17.40243        24.65974         5.77866
   N      -16.58821        23.96992         4.93082
   C      -15.97849        24.45989         3.72770
   H       -3.35413        -0.68905        -5.15472
   H       -3.43658        -4.40221        -1.79245
   H       -1.62181        -5.15401        -6.73690
   H       -2.26423        -2.62614        -6.87101
   H       -5.59796         0.05530         0.66941
   H       -6.58571         1.99909         1.53390
   H       -9.62789         5.47336         2.73914
   H       -7.86623         3.78107         7.02314
   H       -6.38822         3.04274         6.37090
   H       -7.91955         2.16857         6.30919
   H       -7.89417         6.73726        -3.71961
   H       -4.44853         6.17146        -7.14772
   H       -3.49486         4.95908        -6.26980
   H       -3.17028         6.67588        -6.03560
   H       -7.22974         8.17190        -1.98161
   H      -10.14707        14.56749        -0.17173
   H      -13.27937        12.81695         6.18233
   H      -11.70159        12.81847         5.36241
   H      -13.16795        12.29581         4.48600
   H      -10.31144        17.97072        -1.03975
   H      -10.80629        16.27861        -1.24807
   H       -9.50460        16.70347        -0.08750
   H      -14.20885        16.64191         5.33271
   H      -15.58108        18.39038         6.31687
   H      -18.46059        24.13511         7.62412
   H      -17.63374        25.69066         5.59406
   H      -16.05354        25.54536         3.69850
   H      -16.47276        24.04433         2.84531
   H      -14.92677        24.16995         3.69863
*
