# ORCA input file
# SCF done       -226.749282564824          0.000629585458
! CAM-B3LYP def2-SVP def2/J RIJCOSX Grid4 TightSCF
%maxcore 5000
%tddft
    Mode sTDDFT
    Ethresh 5.0
    maxcore 5000
end

%pal
  nprocs 6
  end
* xyz 0 1
   C       -1.05139         1.61396        -1.21384
   C        0.17327         1.60706        -0.56325
   C        0.43784         0.70553         0.45862
   C       -0.51903        -0.21172         0.86594
   C       -1.74546        -0.21495         0.22298
   C       -2.01488         0.69620        -0.82479
   C       -3.36227         0.45876        -1.32513
   C       -4.03806         1.22778        -2.23148
   C       -3.50853         2.38988        -2.83325
   N       -3.13718         3.33940        -3.35979
   C       -5.36540         1.00165        -2.65537
   N       -6.44231         0.88175        -3.03475
   C       -3.84175        -0.75421        -0.66544
   C       -2.93911        -1.01064         0.45376
   C       -3.27672        -1.63902         1.62010
   C       -4.58815        -2.07896         1.90666
   N       -5.65580        -2.38349         2.19672
   C       -2.38438        -1.82855         2.69499
   N       -1.68658        -2.02814         3.58362
   C       -4.84565        -1.54506        -1.13414
   C       -5.12136        -2.90165        -0.81598
   C       -6.31357        -3.53219        -1.06357
   C       -6.32968        -4.89617        -0.70441
   C       -7.41512        -5.79822        -0.76014
   C       -8.70574        -5.44140        -1.30651
   C       -9.93786        -5.85437        -0.88104
   C      -10.98664        -5.36369        -1.68601
   C      -10.58032        -4.59156        -2.73693
   S       -8.85760        -4.44745        -2.73171
   C      -11.40536        -3.91423        -3.76755
  Cl      -12.63799        -5.72399        -1.36296
   C       -7.17377        -7.07931        -0.27349
   C       -5.92418        -7.49549         0.24778
   C       -4.84666        -6.58558         0.33070
   C       -5.07980        -5.31467        -0.17866
   S       -3.92327        -4.01754        -0.18317
   C       -3.59993        -6.95995         0.95983
   C       -3.42384        -7.74852         2.06356
   C       -2.06768        -7.89245         2.42256
   C       -1.19642        -7.22514         1.60872
   S       -2.06385        -6.38482         0.36994
   C        0.28223        -7.14677         1.70394
  Cl       -1.56820        -8.84333         3.76744
   C       -5.92123        -8.86536         0.59512
   C       -7.12276        -9.48680         0.39430
   S       -8.31875        -8.39099        -0.27006
   C       -7.50461       -10.83149         0.66631
   S       -8.97504       -11.45494        -0.00405
   C       -8.78296       -12.98744         0.79288
   C       -7.59947       -13.00182         1.52892
   C       -6.88799       -11.79033         1.46250
   S       -5.44927       -11.38961         2.39547
   C       -4.85169       -12.84812         3.19818
   O       -3.96331       -12.71291         3.99058
   C       -5.37948       -14.22445         2.87070
   O       -4.71771       -15.19641         3.09992
   S       -7.03878       -14.48096         2.30185
   C       -9.79996       -13.95537         0.59765
   C       -9.99380       -15.07623         1.33491
   C      -11.03379       -16.02357         1.11511
   C      -11.20291       -17.09214         2.02853
   C      -12.22833       -18.09574         1.87396
   N      -12.25588       -19.14513         2.70924
   C      -11.40464       -19.20820         3.70021
   C      -10.45141       -18.15695         3.91535
   N      -10.36635       -17.15599         3.07885
   C       -9.59419       -18.19819         5.04363
   N       -8.92695       -18.26569         5.97213
   C      -11.46105       -20.32447         4.57132
   N      -11.51282       -21.21170         5.29432
   C      -13.17227       -18.04517         0.82339
   C      -12.97838       -17.00130        -0.10635
   C      -11.93940       -16.00608         0.03171
   N      -11.97742       -15.12349        -0.97010
   S      -13.18316       -15.49598        -1.96192
   N      -13.72747       -16.78481        -1.19016
   C      -14.23254       -18.99083         0.64341
   S      -14.68596       -19.39751        -0.99660
   C      -15.88431       -20.47319        -0.43169
   C      -15.97869       -20.49979         0.93179
   C      -15.03073       -19.65895         1.55805
   C      -15.00608       -19.50090         3.04249
   C      -16.34037       -19.91970         3.67172
   C      -16.68641       -21.32825         3.17784
   C      -17.00030       -21.29367         1.68520
   C      -16.22629       -19.89351         5.16520
   C      -16.98721       -19.16600         5.96030
   H       -1.23750         2.31854        -2.00773
   H        0.93242         2.31407        -0.86082
   H        1.40153         0.71687         0.94435
   H       -0.30375        -0.91197         1.65684
   H       -5.48888        -1.14009        -1.90490
   H       -7.16521        -3.00099        -1.44671
   H      -10.10690        -6.44944        -0.00327
   H      -12.42394        -4.29244        -3.72890
   H      -10.99556        -4.08445        -4.76151
   H      -11.42626        -2.83796        -3.59356
   H       -4.22652        -8.17319         2.63709
   H        0.66081        -8.00630         2.25219
   H        0.58082        -6.24207         2.23534
   H        0.73103        -7.12171         0.71342
   H       -5.03983        -9.37854         0.92537
   H      -10.49806       -13.73416        -0.19845
   H       -9.36724       -15.29519         2.18629
   H      -16.47375       -21.02812        -1.13526
   H      -14.76818       -18.46817         3.30929
   H      -14.21737       -20.13566         3.45487
   H      -17.12764       -19.22720         3.35518
   H      -17.54686       -21.71637         3.72549
   H      -15.83890       -21.99022         3.36588
   H      -17.98100       -20.83212         1.52942
   H      -17.05303       -22.30725         1.28149
   H      -15.45721       -20.53408         5.57764
   H      -17.76001       -18.52128         5.57326
   H      -16.87469       -19.18227         7.03077
*
