# ORCA input file
# SCF done       -208.166068748245          0.000397887245
! CAM-B3LYP def2-SVP def2/J RIJCOSX Grid4 TightSCF
%maxcore 5000
%tddft
    Mode sTDDFT
    Ethresh 5.0
    maxcore 5000
end

%pal
  nprocs 6
  end
* xyz 0 1
   C       -2.21200        -4.00654         1.07427
   C       -1.64205        -3.18279         1.97745
   C       -0.43048        -2.59721         1.50879
   C        0.39871        -1.66546         2.16099
   C        0.15911        -1.20643         3.51556
   C        0.33463         0.05169         4.01451
   C        0.08126         0.12985         5.40147
   C       -0.27486        -1.05275         5.97956
   S       -0.31282        -2.30507         4.78405
   C       -0.60031        -1.33749         7.39994
  Cl        0.21926         1.60733         6.27612
   C        1.50267        -1.21313         1.44732
   C        1.82402        -1.65383         0.14099
   C        0.97846        -2.56629        -0.52183
   C       -0.12355        -3.02304         0.19418
   S       -1.32757        -4.13159        -0.40436
   C        1.25157        -2.97665        -1.88325
   C        1.66670        -2.19396        -2.92273
   C        1.83590        -2.92272        -4.11956
   C        1.56309        -4.25540        -4.01184
   S        1.07245        -4.63256        -2.39452
   C        1.63652        -5.30788        -5.05616
  Cl        2.34657        -2.17371        -5.58526
   C        3.05385        -1.12251        -0.30692
   C        3.66157        -0.27606         0.58494
   S        2.70489        -0.10409         2.04744
   C        4.90864         0.37005         0.39536
   C        5.56935         1.34513         1.16058
   C        6.83522         1.71116         0.60931
   C        7.61936         2.68543         1.25311
   C        7.16223         3.27277         2.39949
   C        5.91525         2.91549         2.94224
   C        5.12800         1.97367         2.34206
   C        7.14897         1.01181        -0.57185
   S        5.85730        -0.06918        -0.98986
   C        8.33101         1.09583        -1.32520
   C        8.56069         0.40541        -2.48043
   C        9.74013         0.39419        -3.24905
   S        9.63251        -0.15981        -4.88680
   C       11.32077         0.10232        -5.20821
   C       11.95276         0.63729        -4.06865
   C       11.06956         0.76300        -2.95120
   C       11.59199         1.15704        -1.70832
   C       12.90907         1.51761        -1.59851
   S       13.61523         2.00752        -0.04291
   C       13.75863         1.52464        -2.73571
   O       15.04111         1.94250        -2.66818
   C       13.28095         1.07507        -3.94289
   C       11.80184        -0.27555        -6.47915
   C       13.09759        -0.48751        -6.83119
   C       13.54721        -0.87755        -8.12848
   C       12.79222        -0.90097        -9.26367
   C       13.24269        -1.27843       -10.55595
   C       12.37276        -1.22856       -11.64519
   C       12.77805        -1.56584       -12.94428
   N       13.10526        -1.82398       -14.01585
   C       11.03469        -0.83482       -11.50597
   N        9.93868        -0.50941       -11.38174
   C       14.58609        -1.71492       -10.76180
   C       15.53269        -1.80988        -9.79762
   S       15.24730        -1.33265        -8.13370
   C       16.88648        -2.23385       -10.04089
   C       17.26862        -3.22902       -10.87609
   C       18.64313        -3.61280       -11.17301
   C       19.75478        -2.84158       -10.96630
   C       21.06834        -3.24555       -11.28776
   N       22.15830        -3.52205       -11.51659
   C       19.74161        -1.53451       -10.43309
   N       19.80415        -0.46445       -10.02234
   C       18.61187        -4.92279       -11.80249
   C       17.26018        -5.32152       -11.96374
   C       16.36395        -4.28184       -11.43579
   O       15.15559        -4.32000       -11.39717
   C       16.90472        -6.51820       -12.53990
   C       17.92940        -7.36059       -12.97911
   C       19.27726        -6.95664       -12.80994
   C       19.63727        -5.74816       -12.22695
   S       20.37290        -8.15507       -13.41999
   C       19.04827        -9.16288       -13.88953
   C       17.83750        -8.63527       -13.60496
   H       -3.12114        -4.56590         1.17666
   H       -2.06630        -2.98237         2.94342
   H        0.59934         0.90575         3.41946
   H       -0.55582        -0.41712         7.97684
   H        0.10717        -2.05215         7.82001
   H       -1.59895        -1.76385         7.48794
   H        1.80472        -1.13054        -2.85777
   H        1.99525        -4.87618        -5.98717
   H        0.65416        -5.74782        -5.22565
   H        2.31252        -6.10572        -4.75097
   H        3.49910        -1.37552        -1.25194
   H        8.57213         2.97179         0.83442
   H        7.75744         4.02366         2.89693
   H        5.57845         3.39934         3.84630
   H        4.17210         1.71377         2.76571
   H        9.07355         1.78451        -0.95391
   H        7.73750        -0.16955        -2.88869
   H       10.96495         1.14500        -0.83193
   H       12.51638         1.80454         0.67520
   H       15.26546         2.22437        -1.77179
   H       13.95061         1.09765        -4.78383
   H       11.02695        -0.46859        -7.21021
   H       13.87186        -0.42315        -6.08210
   H       11.76068        -0.58541        -9.18895
   H       14.86515        -1.96366       -11.77597
   H       17.63733        -1.72434        -9.44831
   H       15.86649        -6.78973       -12.65089
   H       20.67649        -5.48726       -12.11531
   H       19.26177       -10.10441       -14.35712
   H       16.90285        -9.11857       -13.82430
*
