# ORCA input file
# SCF done       -180.982777849741          0.000955929408
! CAM-B3LYP def2-SVP def2/J RIJCOSX Grid4 TightSCF
%maxcore 5000
%tddft
    Mode sTDDFT
    Ethresh 5.0
    maxcore 5000
end

%pal
  nprocs 6
  end
* xyz 0 1
   C        1.40089         6.79530         2.49845
   C        0.29184         7.52180         2.16158
   C        0.24945         8.92789         2.10471
   N        0.11178        10.06775         2.08681
   C       -0.97067         6.93595         1.92621
   N       -2.00107         6.47753         1.71454
   C        2.70915         7.33197         2.82564
   C        3.38737         6.39938         3.66747
   C        4.64493         6.65150         4.13749
   C        5.30003         7.84107         3.74340
   C        4.64890         8.73941         2.84677
   C        3.33105         8.47542         2.40594
   C        5.33467         9.89553         2.41773
   C        6.59627        10.16646         2.87407
   C        7.22921         9.29362         3.77247
   C        6.59749         8.15471         4.19507
   C        2.55115         5.19919         3.83946
   O        2.73363         4.23816         4.54119
   C        1.43032         5.38356         2.85088
   C        0.77728         4.31617         2.34786
   C        0.01618         4.29958         1.12290
   C       -1.05639         3.50301         0.91363
   C       -1.88367         3.52843        -0.25265
   C       -2.93888         2.63775        -0.36751
   C       -3.80561         2.63828        -1.47525
   N       -4.51546         2.64313        -2.37731
   C       -3.20407         1.66101         0.60885
   N       -3.41671         0.85997         1.40321
   C       -1.67259         4.51866        -1.26709
   C       -0.63029         5.37519        -1.30453
   S        0.66108         5.35631        -0.12413
   C       -0.46494         6.43198        -2.29216
   C       -0.84420         6.32605        -3.58306
   C       -0.69893         7.35441        -4.56817
   C       -1.11358         7.12662        -5.86971
   C       -1.01572         8.11017        -6.87045
   N       -0.94425         8.91682        -7.68402
   C       -1.65489         5.89495        -6.27998
   N       -2.08633         4.88512        -6.61433
   C       -0.13843         8.62213        -4.21011
   C        0.32389         8.95777        -2.98597
   S        0.30096         7.86299        -1.61783
   C        0.83799        10.28393        -2.66720
   C        1.51793        11.04187        -3.55789
   C        1.97371        12.37527        -3.31536
   C        2.76598        13.02136        -4.25093
   C        3.22750        14.33476        -4.05781
   N        3.61004        15.40530        -3.89662
   C        3.18885        12.39433        -5.43578
   N        3.54264        11.87245        -6.39543
   C        1.56356        13.05612        -2.12587
   C        0.94022        12.48195        -1.07488
   S        0.49060        10.79070        -1.02531
   C        0.47417        13.24936         0.06960
   C        0.72555        12.95539         1.35822
   C        0.16653        13.59559         2.54543
   C       -0.86616        14.48953         2.56787
   C       -1.39094        15.06632         3.74619
   N       -1.85362        15.57626         4.66358
   C       -1.56053        14.95283         1.42854
   N       -2.17103        15.35921         0.54589
   C        0.86214        13.05430         3.70165
   C        1.82196        12.09546         3.26231
   C        1.77366        11.98450         1.79849
   O        2.50349        11.34231         1.07182
   C        2.62226        11.43213         4.14869
   C        2.49014        11.68606         5.53025
   C        1.53100        12.64039         5.97655
   C        0.72359        13.32218         5.03966
   C        1.41019        12.88527         7.36005
   C        2.19714        12.21768         8.25856
   C        3.14082        11.27693         7.81720
   C        3.28498        11.01635         6.48153
   H        5.14275         5.94707         4.78693
   H        2.85661         9.17149         1.72948
   H        4.83558        10.56089         1.72834
   H        7.11370        11.05453         2.54434
   H        8.22360         9.52434         4.12347
   H        7.08589         7.47569         4.87830
   H        0.89423         3.37338         2.87042
   H       -1.36304         2.84614         1.71773
   H       -2.43686         4.60438        -2.02835
   H       -1.28127         5.39314        -3.91472
   H       -0.10962         9.37166        -4.99018
   H        1.74589        10.62074        -4.52845
   H        1.80112        14.11052        -2.05908
   H       -0.13778        14.10609        -0.18478
   H        3.35290        10.71629         3.80910
   H        0.01211        14.04557         5.40491
   H        0.68265        13.60928         7.69575
   H        2.09740        12.41040         9.31596
   H        3.75262        10.76058         8.54146
   H        4.01015        10.29424         6.13327
*
