# ORCA input file
# SCF done       -184.571766855035          0.000519456646
! CAM-B3LYP def2-SVP def2/J RIJCOSX Grid4 TightSCF
%maxcore 5000
%tddft
    Mode sTDDFT
    Ethresh 5.0
    maxcore 5000
end

%pal
  nprocs 6
  end
* xyz 0 1
   C        1.11794        -0.80096        -2.25174
   C        0.49053         0.32765        -1.85010
   C       -0.74860         0.33787        -1.17784
   C       -1.47145        -0.92681        -0.96743
   C       -0.99705        -2.15180        -1.28621
   S        0.53354        -2.41401        -2.01494
   C       -2.71521        -0.56097        -0.38296
   C       -2.77077         0.82184        -0.23668
   C       -3.98375         1.24894         0.34560
   C       -4.80201         0.19842         0.61797
   S       -4.13896        -1.34117         0.18601
   C       -1.53285         1.39796        -0.70896
   C       -1.27873         2.79312        -0.64270
   C       -0.07034         3.40896        -0.69200
   C        0.11692         4.81266        -0.62416
   C       -0.82398         5.83107        -0.58044
   C       -0.23472         7.09120        -0.52056
   C        1.17131         7.04477        -0.51816
   S        1.76087         5.44218        -0.59213
   C        1.66533         8.36707        -0.45694
   C        0.57469         9.25666        -0.42618
   C       -0.65385         8.48371        -0.45854
   C       -1.93334         8.95945        -0.42376
   C       -3.05230         8.10263        -0.44355
   N       -3.96542         7.40811        -0.45603
   C       -2.22007        10.33819        -0.35859
   N       -2.45786        11.45893        -0.30209
   C        0.96462        10.59356        -0.36461
   C        2.34014        10.73724        -0.33942
   S        3.16635         9.17713        -0.40037
   C        3.09460        11.94143        -0.26532
   C        4.46394        11.95178        -0.14705
   C        5.25088        13.09647        -0.05674
   C        4.65092        14.43235        -0.09346
   C        3.32540        14.66348        -0.20750
   S        2.14426        13.42336        -0.32648
   C        5.74397        15.33396         0.02694
   C        6.94243        14.62587         0.14236
   C        8.04954        15.49786         0.25379
   C        7.67092        16.80257         0.22547
   S        5.96530        17.03697         0.06177
   C        6.64908        13.21330         0.09562
   C        7.52504        12.11331         0.19328
   C        8.86251        12.15200         0.44582
   C        9.67365        10.99956         0.55036
   C        9.32972         9.66441         0.37513
   C       10.40552         8.80956         0.58116
   C       11.59406         9.48197         0.91926
   S       11.37428        11.17837         0.97411
   C       12.61087         8.52149         1.11642
   C       12.07243         7.23942         0.90019
   C       10.67218         7.37706         0.55372
   C        9.78215         6.38274         0.26197
   C        8.43473         6.65125        -0.05208
   N        7.33606         6.86463        -0.30564
   C       10.14762         5.02134         0.25455
   N       10.43913         3.91183         0.24445
   C       13.00660         6.21790         1.08449
   C       14.25042         6.70134         1.43823
   S       14.26486         8.46395         1.54386
   C       15.43491         5.95829         1.71829
   C       16.62643         6.55038         2.04406
   C       17.81371         5.86884         2.32984
   C       17.87983         4.40034         2.20543
   C       16.82257         3.61580         1.91180
   S       15.23809         4.20734         1.62392
   C       19.23625         4.06383         2.45643
   C       19.96175         5.22693         2.72208
   C       21.32300         4.95496         2.98824
   C       21.58992         3.62549         2.91644
   S       20.21093         2.64894         2.52929
   C       19.07808         6.35776         2.66546
   C       19.51112         7.70490         2.92823
   C       18.76350         8.71165         3.37766
   H        2.06184        -0.78060        -2.76947
   H        0.96108         1.26912        -2.09068
   H       -1.55673        -3.05418        -1.09757
   H       -4.24529         2.27070         0.55319
   H       -5.78022         0.22421         1.05701
   H       -2.15821         3.40443        -0.48866
   H        0.83514         2.82305        -0.74617
   H       -1.88333         5.65509        -0.59709
   H        0.28983        11.43013        -0.33282
   H        4.94928        10.98509        -0.11607
   H        2.90652        15.65711        -0.22774
   H        9.07760        15.19957         0.34422
   H        8.30027        17.66858         0.29108
   H        7.06530        11.14263         0.07082
   H        9.35683        13.09801         0.60188
   H        8.34109         9.34109         0.10804
   H       12.79866         5.16929         0.96946
   H       16.64555         7.63173         2.05204
   H       16.89703         2.54180         1.84260
   H       22.06592         5.69666         3.22025
   H       22.53099         3.13421         3.06999
   H       20.57097         7.87044         2.77194
   H       17.72181         8.59742         3.62132
   H       19.18746         9.68625         3.54891
*
