# ORCA input file
# SCF done       -180.535220753085          0.000632334678
! CAM-B3LYP def2-SVP def2/J RIJCOSX Grid4 TightSCF
%maxcore 5000
%tddft
    Mode sTDDFT
    Ethresh 5.0
    maxcore 5000
end

%pal
  nprocs 6
  end
* xyz 0 1
   C      -11.02255        -0.28745         3.68331
   C      -11.93761         0.14836         4.59934
   C      -12.77640        -0.70458         5.35009
   N      -13.48024        -1.34505         5.99107
   C      -12.19911         1.50141         4.90926
   N      -12.48455         2.57217         5.20738
   C      -10.78662        -1.66979         3.29804
   C       -9.84481        -1.70218         2.23720
   C       -9.42984        -2.87540         1.65240
   C       -9.96747        -4.07243         2.13258
   C      -10.90437        -4.03125         3.19471
   C      -11.32354        -2.84749         3.78765
   S      -11.43256        -5.62622         3.62831
   C      -10.41955        -6.31926         2.41043
   C       -9.71378        -5.40657         1.70723
   C       -9.42160        -0.33271         1.90870
   O       -8.61102        -0.00202         1.07085
   C      -10.15384         0.55308         2.86118
   C       -9.96124         1.87891         2.95432
   C       -9.13290         2.63814         1.97880
   C       -9.85644         2.79537         0.67148
   N      -10.80818         2.00584         0.23441
   S      -11.30575         2.53063        -1.22119
   N      -10.30612         3.80844        -1.31565
   C       -9.57053         3.85387        -0.23103
   C       -8.50943         4.87694         0.04603
   C       -8.45853         5.06136         1.52924
   C       -8.74389         4.00485         2.43410
   N       -8.63002         4.37482         3.68841
   S       -8.19075         5.93778         3.74308
   N       -8.14020         6.17924         2.13691
   C       -7.21809         4.28388        -0.42345
   N       -6.51468         3.47425         0.29340
   C       -5.45427         3.03300        -0.40327
   C       -5.33642         3.50564        -1.71065
   S       -6.63843         4.57356        -2.06078
   N       -4.28211         3.05446        -2.41103
   C       -3.57627         2.25483        -1.69417
   S       -4.15126         1.97159        -0.04841
   C       -2.33400         1.58702        -2.17464
   C       -1.12594         2.08278        -1.43806
   N       -0.98256         3.32491        -1.03039
   S        0.44066         3.47267        -0.26870
   N        0.90826         1.93134        -0.44215
   C       -0.02120         1.26518        -1.09048
   C        0.08565        -0.18722        -1.42883
   C       -1.30605        -0.71254        -1.61712
   C       -2.40520         0.10217        -1.99538
   N       -3.51443        -0.58758        -2.14338
   S       -3.22297        -2.14916        -1.82944
   N       -1.64255        -1.97826        -1.49881
   C        0.84983        -0.37089        -2.71052
   C        0.98628        -1.47088        -3.46423
   C        0.56153        -2.85839        -3.30886
   C        0.54127        -3.58635        -2.15464
   C        0.14596        -4.93910        -2.08338
   N       -0.17949        -6.03350        -1.97279
   C        0.99245        -3.08951        -0.91626
   N        1.40360        -2.72082         0.08951
   C        0.36485        -3.39127        -4.64938
   C        0.92535        -2.48892        -5.59177
   C        1.42961        -1.29861        -4.89153
   O        2.00903        -0.34497        -5.35000
   C        0.93150        -2.74666        -6.94314
   C        0.34753        -3.93702        -7.38413
   C       -0.22608        -4.82129        -6.43649
   C       -0.22428        -4.56831        -5.07037
   S       -0.90247        -6.21836        -7.20955
   C       -0.41884        -5.62497        -8.76061
   C        0.21856        -4.43505        -8.71152
   H       -8.71231        -2.86628         0.84661
   H      -12.03496        -2.86898         4.59620
   H      -10.41430        -7.38568         2.29432
   H       -9.03309        -5.65354         0.91279
   H      -10.43430         2.46736         3.72715
   H       -8.21605         2.06918         1.74917
   H       -8.70854         5.81131        -0.48189
   H       -2.23662         1.83034        -3.24215
   H        0.58605        -0.71914        -0.61127
   H        1.26277         0.53680        -3.13872
   H        1.37250        -2.04819        -7.63717
   H       -0.67754        -5.26497        -4.38470
   H       -0.64644        -6.21391        -9.62777
   H        0.59012        -3.91472        -9.57551
*
