# ORCA input file
# SCF done       -219.662415667456          0.000356060657
! CAM-B3LYP def2-SVP def2/J RIJCOSX Grid4 TightSCF
%maxcore 5000
%tddft
    Mode sTDDFT
    Ethresh 5.0
    maxcore 5000
end

%pal
  nprocs 6
  end
* xyz 0 1
   C       -0.33949        -1.99987        -4.25025
   C       -0.99471        -1.92673        -3.04901
   C       -2.28736        -1.38677        -2.89097
   N       -3.34362        -0.97523        -2.71344
   C       -0.40085        -2.29526        -1.82391
   N        0.06726        -2.54547        -0.80608
   C       -0.76719        -1.34388        -5.48379
   C        0.35639        -1.16357        -6.31177
   C        0.26037        -0.52168        -7.52949
   C       -0.98653        -0.06173        -7.93607
   C       -2.11086        -0.25195        -7.12373
   C       -2.00883        -0.88829        -5.89112
  Cl       -3.64654         0.30592        -7.64896
  Cl       -1.14603         0.74139        -9.44479
   C        1.54618        -1.76720        -5.67086
   O        2.68814        -1.76067        -6.06397
   C        1.02033        -2.44909        -4.45694
   C        1.78757        -3.38609        -3.83198
   C        1.40744        -4.43860        -2.97299
   C        2.27026        -5.18558        -2.18180
   C        1.61325        -6.19051        -1.48344
   C        0.23156        -6.24056        -1.77159
   S       -0.24743        -5.04840        -2.88491
   C       -0.34999        -7.28595        -1.02083
   C        0.65539        -7.89923        -0.25090
   C        1.92248        -7.23328        -0.52146
   C        3.13878        -7.53280         0.01748
   C        3.30642        -8.58027         0.94791
   N        3.44151        -9.43409         1.70112
   C        4.30973        -6.82386        -0.32619
   N        5.26569        -6.25710        -0.60709
   C        0.17378        -8.93482         0.54442
   C       -1.19201        -9.11369         0.38883
   S       -1.88827        -7.98739        -0.76396
   C       -2.01824       -10.05222         1.05232
   C       -3.38713       -10.20892         0.92280
   C       -3.87818       -11.21561         1.75040
   C       -2.87083       -11.83605         2.51612
   S       -1.32421       -11.17797         2.21357
   C       -3.46740       -12.82581         3.33110
   C       -4.85374       -12.82975         3.08612
   C       -5.15481       -11.82936         2.07375
   C       -6.37340       -11.54799         1.52975
   C       -7.54568       -12.24776         1.88952
   N       -8.50176       -12.82253         2.15428
   C       -6.53448       -10.55238         0.54258
   N       -6.65908        -9.74524        -0.26211
   C       -5.54708       -13.74829         3.86434
   C       -4.70067       -14.46054         4.70298
   S       -3.02155       -13.97340         4.51634
   C       -5.07559       -15.45580         5.65009
   C       -6.38336       -15.86379         5.78692
   C       -6.83776       -16.75081         6.75395
   C       -5.94819       -17.27742         7.79268
   C       -4.61211       -17.06795         7.80490
   S       -3.78669       -16.11259         6.64386
   C       -6.79825       -17.96951         8.70024
   C       -8.12480       -17.86947         8.27269
   C       -9.01640       -18.53177         9.14385
   C       -8.35996       -19.10162        10.18868
   S       -6.64576       -18.86461        10.15819
   C       -8.16469       -17.14277         7.03185
   C       -9.32412       -16.87263         6.27241
   C       -9.36612       -16.71039         4.91705
   C      -10.54591       -16.45816         4.18251
   C      -11.67531       -15.80740         4.59911
   C      -12.97426       -16.05952         3.92733
   O      -13.15694       -16.65649         2.89081
   C      -13.99546       -15.48474         4.83178
   C      -15.35533       -15.54261         4.73945
   C      -16.13908       -14.93631         5.74777
   C      -15.49386       -14.28406         6.83808
   C      -16.28135       -13.68846         7.84347
   C      -17.64513       -13.73511         7.76856
   C      -18.28217       -14.37846         6.68915
   C      -17.54614       -14.96665         5.69892
   F      -19.62150       -14.41065         6.64212
   F      -18.39183       -13.16790         8.72617
   C      -14.08214       -14.23292         6.90252
   C      -13.34476       -14.81961         5.91000
   C      -11.90181       -14.89399         5.69147
   C      -10.97664       -14.03945         6.24182
   C      -11.27283       -13.10905         7.25580
   N      -11.46007       -12.35653         8.10295
   C       -9.65098       -13.93820         5.78679
   N       -8.57435       -13.77284         5.42032
   H        1.13249        -0.38039        -8.14806
   H       -2.89316        -1.02244        -5.28937
   H        2.83966        -3.37001        -4.10195
   H        3.32079        -4.96761        -2.11212
   H        0.76623        -9.53451         1.21196
   H       -3.98108        -9.60640         0.25903
   H       -6.61434       -13.86548         3.85110
   H       -7.12014       -15.40019         5.15108
   H       -3.96228       -17.48629         8.55723
   H      -10.08168       -18.58583         9.01152
   H       -8.78047       -19.66354        10.99960
   H      -10.26264       -16.88527         6.81587
   H       -8.47841       -16.92811         4.33949
   H      -10.60511       -16.88842         3.18781
   H      -15.82881       -16.04270         3.90835
   H      -15.80937       -13.18782         8.67444
   H      -18.04911       -15.45493         4.87897
   H      -13.61839       -13.73714         7.74062
*
