# ORCA input file
# SCF done       -192.043403719556          0.000712894994
! CAM-B3LYP def2-SVP def2/J RIJCOSX Grid4 TightSCF
%maxcore 5000
%tddft
    Mode sTDDFT
    Ethresh 5.0
    maxcore 5000
end

%pal
  nprocs 6
  end
* xyz 0 1
   C       -3.23430        -2.72683        -0.14849
   C       -2.40242        -1.70329         0.18580
   C       -2.98102        -0.86719         1.16102
   C       -4.26367        -1.29240         1.53454
   S       -4.74336        -2.70669         0.70642
   C       -4.78417        -0.37869         2.49487
   C       -3.83246         0.62743         2.70680
   C       -2.66993         0.35420         1.87230
   C       -1.54197         1.11973         1.78358
   C       -1.45067         2.37186         2.41823
   N       -1.38908         3.40797         2.90925
   C       -0.40131         0.72550         1.05880
   N        0.55707         0.42061         0.50647
   C       -4.22328         1.55780         3.66934
   C       -5.47253         1.27133         4.19220
   S       -6.17264        -0.16658         3.46510
   C       -6.19757         1.98552         5.19630
   C       -5.66120         3.03210         5.90770
   C       -6.33668         3.76434         6.88817
   C       -7.71355         3.40214         7.26633
   C       -8.42529         2.40265         6.70067
   S       -7.83508         1.40285         5.44523
   C       -8.07098         4.28791         8.31676
   C       -6.99884         5.13619         8.59016
   C       -7.29221         6.04839         9.62879
   C       -8.55103         5.86906        10.10666
   S       -9.42988         4.59803         9.32257
   C       -5.91104         4.83183         7.69815
   C       -4.69173         5.56372         7.77289
   C       -3.66453         5.62346         6.90108
   C       -2.48986         6.42288         7.16630
   C       -2.50748         7.65287         7.78886
   C       -3.62732         8.51412         8.19887
   O       -3.58589         9.14201         9.23334
   C       -4.76601         8.65668         7.21637
   S       -0.90611         8.24726         8.10479
   C       -0.21600         6.89378         7.33479
   C       -1.14798         5.98969         6.88285
   C       -0.81089         4.72665         6.28813
   S       -1.79799         3.34510         6.57266
   C       -0.75651         2.29333         5.64636
   C        0.34445         3.02443         5.14262
   C        0.29917         4.40475         5.49939
   C        1.28449         5.27041         4.98112
   C        2.27602         4.76884         4.19038
   S        3.51005         5.87480         3.54007
   C        4.89363         5.47050         4.67277
   C        4.59721         5.87855         6.10152
   C        2.32633         3.39030         3.84196
   S        3.61492         2.92087         2.76455
   C        3.32104         1.14459         2.44151
   C        4.38716         0.64922         1.48333
   C        1.36517         2.52959         4.32677
   C       -1.09595         0.98362         5.34867
   C       -2.25317         0.35625         5.75807
   C       -2.73977        -0.88061         5.34166
   C       -2.30680        -1.80470         4.39943
   C       -3.09406        -2.96965         4.05061
   C       -4.34453        -3.31644         4.50552
   C       -5.06149        -4.44116         4.04685
   N       -5.71047        -5.32708         3.71106
   C       -5.13432        -2.62809         5.44872
   N       -5.86843        -2.14820         6.19282
   C       -2.35424        -3.72973         3.04191
   C       -1.16686        -3.04186         2.75518
   C       -1.08979        -1.81853         3.58037
   O       -0.16426        -1.02219         3.52921
   C       -0.26109        -3.49389         1.81951
   C       -0.55191        -4.67219         1.14375
   C       -1.72927        -5.36977         1.42480
   C       -2.63589        -4.90929         2.37459
  Cl       -2.08505        -6.82205         0.57629
  Cl        0.53497        -5.26207        -0.04892
   H       -3.05985        -3.51227        -0.85574
   H       -1.42972        -1.55761        -0.24715
   H       -3.63468         2.40693         3.96081
   H       -4.63294         3.28296         5.70101
   H       -9.43152         2.16531         7.00867
   H       -6.61733         6.79434        10.00885
   H       -9.03898         6.41395        10.89101
   H       -4.60280         6.16308         8.67206
   H       -3.67094         5.06631         5.97747
   H       -4.71580         7.93315         6.41073
   H       -4.70401         9.66342         6.80245
   H       -5.71894         8.57766         7.73452
   H        0.85069         6.79400         7.30758
   H        1.24502         6.32980         5.17334
   H        5.73679         6.02791         4.26855
   H        5.09386         4.40360         4.58778
   H        4.37429         6.94181         6.15349
   H        5.46055         5.67204         6.73081
   H        3.74524         5.32336         6.49111
   H        2.33011         1.03900         2.00055
   H        3.37168         0.61509         3.39299
   H        4.34353         1.20307         0.54864
   H        4.22049        -0.40372         1.26971
   H        5.37986         0.76843         1.91247
   H        1.36634         1.48578         4.06117
   H       -0.41408         0.44021         4.71228
   H       -2.88622         0.89077         6.45845
   H       -3.67234        -1.14848         5.82116
   H        0.64071        -2.93887         1.61398
   H       -3.53146        -5.47848         2.55944
*
