# ORCA input file
# SCF done       -183.479607029389          0.000212628639
! CAM-B3LYP def2-SVP def2/J RIJCOSX Grid4 TightSCF
%maxcore 5000
%tddft
    Mode sTDDFT
    Ethresh 5.0
    maxcore 5000
end

%pal
  nprocs 6
  end
* xyz 0 1
   C       -6.34500        -2.74688         1.09066
   C       -6.43399        -3.55827         2.18978
   C       -6.38629        -4.96694         2.14087
   N       -6.34456        -6.11382         2.15849
   C       -6.64485        -3.08521         3.50209
   N       -6.85455        -2.76120         4.58352
   C       -6.28475        -3.17621        -0.29663
   C       -6.44037        -2.04072        -1.13196
   C       -6.43695        -2.13069        -2.50345
   C       -6.27466        -3.39543        -3.07639
   C       -6.11539        -4.52215        -2.23297
   C       -6.11794        -4.43386        -0.84671
   S       -5.92058        -5.97740        -3.15828
   C       -6.05409        -5.08566        -4.63399
   C       -6.23535        -3.75937        -4.45185
   C       -6.56940        -0.82424        -0.30731
   O       -6.66808         0.31161        -0.71219
   C       -6.42873        -1.29504         1.10322
   C       -6.21948        -0.47603         2.15883
   C       -6.45106         0.95405         2.10405
   C       -7.67406         1.43354         1.60104
   O       -8.67750         0.52731         1.29732
   C       -9.32417        -0.00399         2.43457
   C       -7.87281         2.80747         1.45127
   O       -8.97240         3.39328         0.91303
   C       -9.80658         2.65802         0.04055
   C       -6.85334         3.69213         1.85700
   C       -5.68073         3.20368         2.41424
   C       -5.47772         1.84572         2.54297
   C       -7.04462         5.14759         1.71305
   C       -6.13752         5.90414         0.95902
   O       -5.08774         5.27691         0.30461
   C       -5.44993         4.42491        -0.76459
   C       -6.27325         7.29889         0.89745
   O       -5.48146         8.16472         0.21497
   C       -4.45739         7.73269        -0.65166
   C       -7.33315         7.91255         1.59718
   C       -8.23653         7.13880         2.31156
   C       -8.09689         5.76854         2.36961
   C       -7.48285         9.37833         1.58877
   C       -8.72055         9.95852         1.29730
   O       -9.78197         9.16307         0.89599
   C       -9.62951         8.63398        -0.40935
   C       -8.89278        11.34937         1.37582
   O      -10.06608        12.00572         1.24201
   C      -11.30914        11.33350         1.22914
   C       -7.77175        12.17193         1.65149
   C       -6.54775        11.55714         1.95285
   C       -6.40444        10.19533         1.92872
   C       -7.81750        13.60151         1.70822
   C       -8.63584        14.54693         1.17464
   C       -9.68667        14.55572         0.18322
   C       -9.85071        13.67458        -0.85391
   C      -10.89245        13.74825        -1.80003
   N      -11.73040        13.73195        -2.58537
   C       -8.97979        12.60724        -1.13986
   N       -8.30666        11.72421        -1.43385
   C      -10.44288        15.79278         0.35496
   C       -9.75279        16.62743         1.26996
   C       -8.55468        15.92077         1.75491
   O       -7.69584        16.34011         2.49803
   C      -10.20456        17.87835         1.61454
   C      -11.39961        18.32245         1.04030
   C      -12.08817        17.47694         0.13875
   C      -11.62623        16.21517        -0.21862
   S      -13.54526        18.22567        -0.43576
   C      -13.22400        19.63661         0.51314
   C      -12.08245        19.55756         1.23016
   H       -6.55715        -1.24977        -3.11485
   H       -5.98469        -5.31714        -0.24411
   H       -5.98663        -5.61897        -5.56228
   H       -6.33804        -3.05002        -5.25298
   H       -5.83109        -0.87291         3.08911
   H      -10.07566        -0.69641         2.05872
   H       -9.81212         0.78460         3.01890
   H       -8.62478        -0.54316         3.08412
   H       -9.22255         2.00982        -0.61507
   H      -10.33481         3.40700        -0.55050
   H      -10.53363         2.05417         0.58889
   H       -4.92150         3.90284         2.72809
   H       -4.54977         1.46389         2.94021
   H       -4.51322         4.12441        -1.23140
   H       -6.07002         4.95307        -1.49773
   H       -5.98294         3.53399        -0.42377
   H       -4.01272         8.65242        -1.03227
   H       -4.85230         7.15437        -1.49087
   H       -3.70089         7.14434        -0.12926
   H       -9.04504         7.62624         2.83285
   H       -8.78727         5.17046         2.94183
   H      -10.57382         8.14565        -0.64417
   H       -8.81900         7.90152        -0.45060
   H       -9.42885         9.43202        -1.13184
   H      -11.37483        10.59421         2.02804
   H      -11.49507        10.84639         0.26976
   H      -12.05331        12.11603         1.38591
   H       -5.70165        12.18558         2.18651
   H       -5.45834         9.74040         2.17098
   H       -7.05305        14.03409         2.35124
   H       -9.65353        18.49437         2.30819
   H      -12.18899        15.60586        -0.90640
   H      -13.92256        20.44968         0.47374
   H      -11.72210        20.33725         1.87662
*
