# ORCA input file
# SCF done       -261.533536782982          0.000137637833
! CAM-B3LYP def2-SVP def2/J RIJCOSX Grid4 TightSCF
%maxcore 5000
%tddft
    Mode sTDDFT
    Ethresh 5.0
    maxcore 5000
end

%pal
  nprocs 6
  end
* xyz 0 1
   C        5.02798        -4.69591         3.34795
   C        5.88727        -4.24527         4.33304
   C        5.68570        -3.00582         4.91544
   C        4.63146        -2.21186         4.50772
   C        3.75751        -2.64910         3.51628
   C        3.95493        -3.91534         2.94204
   C        3.02419        -4.43090         1.91743
   C        3.52546        -4.56917         0.64811
   C        4.88258        -4.27537         0.37892
   N        5.97422        -4.02533         0.13267
   C        2.77363        -4.78830        -0.52154
   N        2.21209        -4.86367        -1.52181
   C        1.65011        -4.72306         2.27510
   C        2.68106        -1.78478         3.02470
   C        1.92127        -1.04052         3.88021
   C        1.95326        -1.20635         5.28163
   N        1.88936        -1.35878         6.41708
   C        0.96418        -0.10621         3.42932
   N        0.19039         0.67131         3.09515
   C        0.88255        -5.52825         1.50169
   C       -0.55103        -5.74470         1.62331
   C       -1.21015        -5.98577         2.84048
   C       -0.39169        -6.39010         4.00636
   O        0.52792        -7.16870         3.89307
   C       -0.65339        -5.71336         5.30646
   C       -1.64773        -5.84857         6.21819
   S       -1.35280        -4.90456         7.63209
   C        0.14083        -4.33950         7.00550
   C        0.38315        -4.83740         5.76329
   C        1.53575        -4.57390         4.87089
   O        2.68629        -4.70367         5.20495
   C        1.07434        -4.13543         3.50810
   C        0.07286        -3.24120         3.45482
   C       -0.52936        -2.62773         2.29274
   C        0.02529        -2.04747         1.21630
   C        1.39904        -1.82187         0.84678
   C        2.52126        -1.73407         1.58295
   C       -2.59681        -5.98281         2.88262
   C       -3.33056        -5.81264         1.72570
   C       -2.69518        -5.66501         0.49436
   C       -1.30484        -5.63643         0.46012
   C       -3.45994        -5.67021        -0.75861
   C       -3.09416        -4.90314        -1.88013
   C       -2.23355        -3.70922        -1.71651
   O       -2.11352        -3.13069        -0.65894
   C       -1.54046        -3.21698        -2.94241
   C       -0.21842        -3.37363        -3.19852
   S        0.24820        -2.62593        -4.68083
   C       -1.34729        -2.08882        -4.96079
   C       -2.21030        -2.46910        -3.96512
   C       -3.63289        -2.12103        -3.86884
   O       -4.25338        -2.23544        -2.82592
   C       -4.27869        -1.63515        -5.11438
   C       -4.13151        -2.32715        -6.31370
   C       -4.79277        -1.89276        -7.44789
   C       -5.58962        -0.76021        -7.39868
   C       -5.73852        -0.06818        -6.20776
   C       -5.09729        -0.51055        -5.06580
   C       -3.68604        -5.19466        -3.10886
   C       -4.71822        -6.10222        -3.21056
   C       -5.20939        -6.73583        -2.06858
   C       -4.53012        -6.54495        -0.87032
   C       -6.41337        -7.57089        -2.10413
   C       -7.48723        -7.25315        -2.94372
   C       -7.52509        -6.08787        -3.87175
   O       -7.72859        -6.27564        -5.05706
   C       -7.42059        -4.70959        -3.34989
   C       -7.42010        -3.68675        -4.26615
   S       -7.41039        -2.14237        -3.55845
   C       -7.37684        -2.83383        -1.99644
   C       -7.37271        -4.20164        -2.00761
   C       -7.40191        -4.95217        -0.73285
   O       -8.06040        -5.96572        -0.58052
   C       -6.62875        -4.35171         0.38094
   C       -5.53004        -3.51476         0.18154
   C       -4.85871        -2.98358         1.26751
   C       -5.27379        -3.27307         2.55787
   C       -6.35489        -4.11651         2.76641
   C       -7.01991        -4.66092         1.68512
   C       -8.59497        -8.09610        -2.98818
   C       -8.69016        -9.18429        -2.15237
   C       -7.67042        -9.45725        -1.23067
   C       -6.52704        -8.66960        -1.25856
   C       -7.94153       -10.52759        -0.28873
   C       -7.85519       -10.54056         1.06027
   C       -8.68198       -11.46442         1.85707
   C       -8.95465       -12.76390         1.55544
   C       -8.41544       -13.43269         0.43210
   N       -7.99642       -14.01818        -0.46040
   C       -9.76216       -13.60334         2.35385
   N      -10.41266       -14.32018         2.96882
   C       -9.13687       -10.70460         3.00994
   C       -8.42718        -9.48204         3.05671
   C       -8.70255        -8.54364         4.03631
   C       -9.68219        -8.83678         4.97322
   C      -10.36484       -10.04549         4.94179
   C      -10.10172       -10.99153         3.96290
   C       -7.42011        -9.50327         2.00244
   C       -6.20464        -8.89385         2.09977
   C       -5.89910        -7.93587         3.09176
   N       -5.58805        -7.14203         3.85994
   C       -5.03782        -9.28901         1.40826
   N       -4.02698        -9.62888         0.98362
   H        5.16680        -5.67404         2.91196
   H        6.71110        -4.86650         4.64789
   H        6.35215        -2.65241         5.68689
   H        4.49716        -1.23020         4.93821
   H        1.32813        -5.99534         0.63454
   H       -2.52144        -6.46727         6.17087
   H        0.73735        -3.63826         7.55487
   H       -0.37883        -2.92758         4.39240
   H       -1.61177        -2.60934         2.34573
   H       -0.67088        -1.70238         0.46401
   H        1.53093        -1.71374        -0.22435
   H        3.46371        -1.63839         1.05244
   H       -3.11050        -6.15754         3.81485
   H       -4.40653        -5.80753         1.78341
   H       -0.79242        -5.51931        -0.48381
   H        0.51944        -3.89295        -2.61653
   H       -1.56962        -1.49853        -5.82791
   H       -3.52228        -3.21873        -6.35250
   H       -4.68561        -2.43942        -8.37280
   H       -6.09778        -0.42042        -8.28850
   H       -6.36116         0.81253        -6.16701
   H       -5.21005         0.01527        -4.12967
   H       -3.35561        -4.68341        -3.99936
   H       -5.14427        -6.32054        -4.17766
   H       -4.84290        -7.08250         0.00939
   H       -7.43691        -3.80119        -5.33268
   H       -7.39089        -2.19133        -1.13831
   H       -5.18328        -3.28707        -0.81383
   H       -4.00337        -2.34913         1.09432
   H       -4.75186        -2.84939         3.40302
   H       -6.67122        -4.35395         3.77069
   H       -7.86585        -5.31916         1.82483
   H       -9.39265        -7.86817        -3.67914
   H       -9.57085        -9.80870        -2.17955
   H       -5.68129        -8.95300        -0.65911
   H       -8.49638       -11.34915        -0.72946
   H       -8.18376        -7.59901         4.06580
   H       -9.91548        -8.11292         5.73895
   H      -11.11791       -10.25168         5.68665
   H      -10.64533       -11.92221         3.94362
*
