# ORCA input file
# SCF done       -289.135498153498          0.000658789514
! CAM-B3LYP def2-SVP def2/J RIJCOSX Grid4 TightSCF
%maxcore 5000
%tddft
    Mode sTDDFT
    Ethresh 5.0
    maxcore 5000
end

%pal
  nprocs 6
  end
* xyz 0 1
   C       -3.19357        -2.67016        -2.70437
   C       -2.77216        -1.42121        -2.98746
   C       -1.54462        -1.08959        -2.34227
   C       -0.83601         0.12435        -2.39437
   C       -1.35523         1.26883        -3.11884
   C       -2.63177         1.74996        -3.12811
   C       -2.77958         2.88312        -3.95845
   C       -1.63578         3.27353        -4.59041
   S       -0.32815         2.22715        -4.14976
   C       -1.42992         4.40065        -5.53468
  Cl       -4.28937         3.69294        -4.14551
   C        0.37277         0.16685        -1.71101
   C        0.87960        -0.91818        -0.95389
   C        0.14826        -2.11873        -0.86362
   C       -1.04411        -2.17283        -1.58301
   S       -2.13100        -3.53442        -1.64998
   C        0.58373        -3.23658        -0.05200
   C        0.47512        -4.56992        -0.32638
   C        0.95201        -5.38495         0.72290
   C        1.41420        -4.69947         1.80832
   S        1.27229        -2.99709         1.53346
   C        1.98087        -5.22631         3.07494
  Cl        0.94101        -7.10391         0.62493
   C        2.13682        -0.61464        -0.37672
   C        2.56682         0.65527        -0.63701
   S        1.43284         1.54560        -1.63033
   C        3.78170         1.26170        -0.20705
   C        4.83398         0.65596         0.45106
   C        5.87169         1.55356         0.71157
   C        5.59818         2.85221         0.25538
   S        4.07357         2.96613        -0.50219
   C        6.71027         3.68171         0.56053
   C        7.69107         2.90113         1.19222
   C        7.19415         1.54002         1.31664
   C        7.83118         0.47596         1.88580
   C        7.23132        -0.79756         1.97183
   N        6.74438        -1.83313         2.04986
   C        9.12903         0.58173         2.42743
   N       10.18668         0.66412         2.86343
   C        8.83493         3.62991         1.52574
   C        8.72364         4.95739         1.16238
   S        7.18560         5.31118         0.39400
   C        9.68941         5.98898         1.33778
   C       10.99796         5.85280         1.70595
   C       11.69988         7.08008         1.77476
   C       13.06336         7.28817         2.06916
   C       13.98608         6.19892         2.31579
   C       15.01253         6.16041         3.21620
   C       15.74840         4.95738         3.15715
   C       15.31271         4.07324         2.21342
   S       13.94774         4.72935         1.37662
   C       15.84062         2.72657         1.88145
  Cl       17.08431         4.64851         4.19776
   C       13.49635         8.61041         2.08959
   C       12.64917         9.71546         1.82623
   C       11.29345         9.50623         1.50340
   C       10.85922         8.18552         1.49217
   S        9.24889         7.66410         1.08444
   C       10.39080        10.58943         1.17000
   C        9.07226        10.71146         1.50387
   C        8.47488        11.86888         0.95997
   C        9.31149        12.63552         0.20280
   S       10.88738        11.92156         0.15931
   C        9.01765        13.89696        -0.52279
  Cl        6.82400        12.26918         1.24123
   C       13.34062        10.94501         1.92616
   C       14.67095        10.80623         2.19980
   S       15.13541         9.12825         2.38308
   C       15.63407        11.84285         2.34079
   C       17.00426        11.72197         2.44065
   C       17.63214        12.96618         2.54610
   C       16.72497        14.03587         2.54061
   S       15.10589        13.51878         2.38627
   C       17.45278        15.24941         2.65967
   C       18.82044        14.94680         2.72549
   C       18.98083        13.50211         2.65455
   C       20.14898        12.79938         2.67601
   C       20.18102        11.39098         2.59503
   N       20.21321        10.24726         2.52232
   C       21.40608        13.43237         2.77714
   N       22.43107        13.93943         2.85948
   C       19.62247        16.08542         2.84311
   C       18.87328        17.24281         2.87774
   S       17.14923        16.92673         2.75559
   C       19.34008        18.58053         3.00513
   C       18.59255        19.71212         3.15475
   C       19.36472        20.89402         3.26837
   C       18.91311        22.21297         3.46547
   C       17.51380        22.53984         3.64953
   C       16.83774        23.63181         3.18619
   C       15.49247        23.66464         3.61304
   C       15.12504        22.62057         4.41028
   S       16.46730        21.55106         4.63548
   C       13.80619        22.33925         5.03138
  Cl       14.41657        24.92952         3.15717
   C       19.89294        23.20260         3.50900
   C       21.27798        22.93458         3.39952
   C       21.73025        21.61401         3.22695
   C       20.75136        20.62798         3.15476
   S       21.05761        18.92188         2.97074
   C       23.13611        21.26785         3.14113
   C       23.72009        20.35180         2.31474
   C       25.11002        20.22806         2.53066
   C       25.60134        21.02659         3.52143
   S       24.32248        21.97046         4.20761
   C       26.99552        21.14539         4.01749
  Cl       26.08939        19.15411         1.60790
   C       22.05101        24.12988         3.48378
   C       21.29811        25.23142         3.67511
   S       19.60318        24.90390         3.75280
   H       -4.07640        -3.16477        -3.05943
   H       -3.29322        -0.75192        -3.64646
   H       -3.43209         1.34482        -2.53691
   H       -1.17030         4.02864        -6.52569
   H       -0.61823         5.04174        -5.19422
   H       -2.34123         4.98865        -5.60852
   H        0.10516        -4.96833        -1.25240
   H        1.40370        -4.87483         3.92960
   H        3.00911        -4.88952         3.20381
   H        1.96423        -6.31305         3.05900
   H        2.70700        -1.31264         0.20584
   H        4.84128        -0.38478         0.71561
   H        9.70084         3.22548         2.01570
   H       11.44432         4.89940         1.91430
   H       15.22330         6.93740         3.92698
   H       16.09048         2.66149         0.82319
   H       15.09719         1.95960         2.09829
   H       16.73272         2.52876         2.47025
   H        8.54493        10.02876         2.14356
   H        8.94182        13.71356        -1.59520
   H        9.80940        14.62625        -0.36164
   H        8.07336        14.30840        -0.17423
   H       12.87866        11.90688         1.79922
   H       17.50414        10.77010         2.42835
   H       20.69576        16.08817         2.90703
   H       17.51832        19.69127         3.17866
   H       17.26215        24.37394         2.53643
   H       13.13331        23.17432         4.85394
   H       13.91157        22.18817         6.10470
   H       13.36617        21.43666         4.60740
   H       23.19681        19.80534         1.55249
   H       27.07310        20.77054         5.03815
   H       27.31692        22.18595         4.01706
   H       27.65968        20.56655         3.38053
   H       23.12105        24.15430         3.39761
   H       21.62858        26.24714         3.76981
*
