# ORCA input file
# SCF done       -265.077501707763          0.000344978055
! CAM-B3LYP def2-SVP def2/J RIJCOSX Grid4 TightSCF
%maxcore 5000
%tddft
    Mode sTDDFT
    Ethresh 5.0
    maxcore 5000
end

%pal
  nprocs 6
  end
* xyz 0 1
   C       -0.62408        -2.02685         0.93891
   C       -0.39630        -1.49711        -0.27914
   C        0.86973        -0.84644        -0.37659
   C        1.42318        -0.17810        -1.48271
   C        0.67163        -0.01547        -2.71280
   C       -0.63913         0.33561        -2.85339
   C       -1.04675         0.39127        -4.20466
   C       -0.06813         0.08243        -5.10219
   S        1.40849        -0.27832        -4.26905
   C       -0.14536         0.03754        -6.58492
  Cl       -2.65360         0.81596        -4.66200
   C        2.70915         0.32927        -1.32879
   C        3.43713         0.23732        -0.11654
   C        2.87275        -0.40590         1.00208
   C        1.60072        -0.94584         0.83025
   S        0.68044        -1.78849         2.04950
   C        3.55920        -0.50426         2.27458
   C        3.58370        -1.56635         3.13243
   C        4.31300        -1.29980         4.31088
   C        4.84258        -0.04470         4.37788
   S        4.44100         0.84164         2.94678
   C        5.64257         0.56898         5.46856
  Cl        4.51687        -2.47409         5.55409
   C        4.71238         0.83501        -0.23525
   C        4.96692         1.37069        -1.46793
   S        3.62438         1.14753        -2.56095
   C        6.14557         2.09691        -1.81500
   S        7.24684         2.49530        -0.52599
   C        8.28150         3.38495        -1.60719
   C        7.77306         3.36976        -2.89377
   C        6.58319         2.62213        -3.01702
   C        5.89442         2.37663        -4.33299
   N        5.55707         0.96647        -4.43442
   C        6.76604         2.86663        -5.50047
   C        7.37618         4.22334        -5.19032
   C        8.40390         4.09359        -4.05475
   N        8.95031         5.37364        -3.62724
   C        9.48709         3.97694        -1.14261
   C        9.89044         3.95725         0.14534
   C       11.11151         4.51146         0.61834
   C       11.54383         4.54437         1.91424
   C       12.81837         5.13455         2.08401
   C       13.52107         5.35584         3.28513
   C       13.02763         4.91544         4.57467
   C       13.11127         5.56855         5.77033
   C       12.58529         4.81573         6.84285
   C       12.10893         3.58695         6.49280
   S       12.30056         3.34487         4.78893
   C       11.50351         2.53954         7.35383
  Cl       12.55534         5.41636         8.45694
   C       14.74315         6.01017         3.17789
   C       15.29874         6.43185         1.94565
   C       14.59227         6.22015         0.74404
   C       13.36530         5.57078         0.85113
   S       12.28345         5.22706        -0.47128
   C       15.09346         6.65697        -0.54379
   C       14.96963         6.02849        -1.74926
   C       15.52794         6.76787        -2.81483
   C       16.07317         7.96390        -2.45346
   S       15.90377         8.19058        -0.74465
   C       16.74277         8.98187        -3.30217
  Cl       15.51216         6.18978        -4.43735
   C       16.58830         6.99309         2.11706
   C       17.00827         7.02653         3.41562
   S       15.81740         6.35600         4.50665
   C       18.23783         7.52794         3.93556
   N       19.21694         8.05460         3.14652
   C       20.26846         8.45412         3.92164
   C       19.94846         8.17407         5.24578
   C       18.68246         7.59524         5.25187
   C       21.41493         9.02243         3.37894
   C       22.40017         9.50332         2.85966
   C       23.53082        10.06296         2.28153
   C       23.81339        10.15229         0.94993
   C       25.05352        10.78160         0.67655
   C       25.63230        11.04507        -0.57929
   C       24.92097        10.73636        -1.80407
   C       23.60088        10.94686        -2.08067
   C       23.23805        10.50241        -3.37072
   C       24.25921         9.95209        -4.08765
   S       25.71987         9.98355        -3.15720
   C       24.23696         9.38591        -5.46020
  Cl       21.62855        10.64755        -3.97058
   C       26.89924        11.61966        -0.57220
   C       27.57838        11.98797         0.61313
   C       26.98307        11.76354         1.86730
   C       25.73628        11.14428         1.86321
   S       24.80139        10.74914         3.28096
   C       27.60770        12.16318         3.11406
   C       27.63306        11.48166         4.29605
   C       28.28001        12.19856         5.32659
   C       28.74179        13.42754         4.95796
   S       28.38266        13.71558         3.28870
   C       29.45565        14.44061         5.77574
  Cl       28.46183        11.55703         6.91478
   C       28.85721        12.55131         0.32786
   C       29.11599        12.62762        -0.99270
   S       27.83733        12.02067        -1.98517
   H       -1.48802        -2.56729         1.27306
   H       -1.08560        -1.57587        -1.09926
   H       -1.28559         0.58669        -2.03291
   H       -1.16595         0.23220        -6.90498
   H        0.16322        -0.93890        -6.95591
   H        0.51122         0.78734        -7.02573
   H        3.13225        -2.51872         2.92654
   H        5.00698         1.17586         6.11506
   H        6.41869         1.21124         5.05786
   H        6.10043        -0.21168         6.07235
   H        5.43512         0.86587         0.55935
   H        4.94252         2.92756        -4.33812
   H        6.39430         0.39467        -4.41870
   H        5.04665         0.77470        -5.28760
   H        6.15812         2.91606        -6.40673
   H        7.56967         2.14370        -5.67228
   H        6.58854         4.91869        -4.88534
   H        7.86659         4.63242        -6.07722
   H        9.25644         3.49911        -4.41726
   H        8.21539         5.95883        -3.24367
   H        9.35773         5.85956        -4.41855
   H       10.08623         4.47178        -1.89417
   H        9.26916         3.48556         0.89701
   H       10.94985         4.16357         2.72409
   H       13.49962         6.56279         5.88867
   H       11.39203         2.91847         8.36669
   H       12.13439         1.65096         7.37803
   H       10.52611         2.24610         6.97309
   H       14.52803         5.05877        -1.88094
   H       16.65136         8.70187        -4.34874
   H       17.80108         9.05859        -3.05160
   H       16.29213         9.96247        -3.15488
   H       17.18661         7.34474         1.29739
   H       19.17648         8.14405         2.14534
   H       20.57407         8.37207         6.09295
   H       18.13329         7.25660         6.10805
   H       23.16340         9.75384         0.19309
   H       22.91672        11.43832        -1.41385
   H       23.23185         9.45234        -5.86943
   H       24.54678         8.34144        -5.44962
   H       24.92073         9.93136        -6.10981
   H       27.24015        10.49129         4.43176
   H       29.61586        14.05300         6.77871
   H       28.87475        15.36036         5.84102
   H       30.41985        14.68417         5.33080
   H       29.54920        12.87162         1.08410
   H       29.99946        13.00412        -1.46984
*
