# ORCA input file
# SCF done       -136.578006164318          0.000961232466
! CAM-B3LYP def2-SVP def2/J RIJCOSX Grid4 TightSCF
%maxcore 5000
%tddft
    Mode sTDDFT
    Ethresh 5.0
    maxcore 5000
end

%pal
  nprocs 6
  end
* xyz 0 1
   C        2.56131         2.74066        -1.28933
   C        2.69442         4.09712        -1.11904
   C        3.48633         4.91721        -1.94516
   N        4.10189         5.63048        -2.60192
   C        2.11526         4.80634        -0.05087
   N        1.70463         5.42515         0.82614
   C        3.34668         1.92739        -2.21189
   C        3.28725         0.57002        -1.77937
   C        3.96248        -0.41927        -2.43275
   C        4.73213        -0.09267        -3.57313
   C        4.77951         1.25877        -4.02084
   C        4.07493         2.26488        -3.32006
   C        5.54312         1.56979        -5.16391
   C        6.23281         0.59491        -5.83192
   C        6.18849        -0.73503        -5.38877
   C        5.45417        -1.07130        -4.28377
   C        2.40838         0.47540        -0.59657
   O        2.15975        -0.50432         0.07085
   C        1.83417         1.83496        -0.42999
   C        0.74203         2.03223         0.36490
   C       -0.14819         3.13254         0.35208
   C       -0.51640         3.79989        -0.79549
   C       -1.39794         4.89524        -0.63895
   C       -1.78759         5.18600         0.65513
  Si       -1.04626         3.90813         1.80405
   C       -2.57339         6.30782         1.02460
   C       -3.30683         7.08367         0.14296
   C       -3.99507         8.18634         0.69532
   C       -3.86907         8.37447         2.06295
  Si       -2.77440         7.01859         2.74312
   C       -4.44137         9.45656         2.77858
   C       -5.39318        10.32823         2.27461
   C       -5.77485        11.40032         3.11219
   C       -5.14462        11.47145         4.34303
  Si       -4.05438         9.96274         4.53889
   C       -5.32470        12.49632         5.29448
   C       -5.62986        13.81786         5.07648
   C       -5.84412        14.79994         6.11761
   C       -6.15968        14.53789         7.42847
   C       -6.38361        15.53442         8.39874
   N       -6.56921        16.30099         9.23400
   C       -6.34250        13.25050         7.97191
   N       -6.53164        12.23856         8.48281
   C       -5.75779        16.12520         5.51498
   C       -5.56124        15.96579         4.11465
   C       -5.51641        14.52919         3.78075
   O       -5.36774        14.06300         2.66913
   C       -5.44404        17.03478         3.27522
   C       -5.51831        18.34106         3.80964
   C       -5.70849        18.50982         5.21100
   C       -5.82730        17.38110         6.05555
   C       -5.77637        19.81717         5.73324
   C       -5.66440        20.90646         4.91243
   C       -5.47857        20.73885         3.53242
   C       -5.40734        19.48309         2.99290
   H        3.91288        -1.44036        -2.08477
   H        4.12125         3.27960        -3.68378
   H        5.57671         2.59629        -5.49845
   H        6.81725         0.84378        -6.70505
   H        6.73889        -1.49199        -5.92727
   H        5.41641        -2.09412        -3.93844
   H        0.52169         1.22711         1.05909
   H       -0.18612         3.49232        -1.77896
   H       -1.68877         5.48171        -1.49724
   H       -2.07699         3.00176         2.32411
   H       -0.17913         4.41432         2.85778
   H       -3.38438         6.86958        -0.91273
   H       -4.55919         8.84852         0.05570
   H       -3.48106         6.11461         3.65408
   H       -1.52721         7.50550         3.32800
   H       -5.84673        10.21652         1.30168
   H       -6.54712        12.08618         2.80569
   H       -4.58365         9.01504         5.52002
   H       -2.64417        10.26369         4.78552
   H       -5.10442        12.20925         6.31660
   H       -5.29556        16.88644         2.21576
   H       -5.96410        17.54148         7.11324
   H       -5.92073        19.94140         6.79652
   H       -5.71849        21.90385         5.32259
   H       -5.39178        21.60908         2.89893
   H       -5.26399        19.34723         1.93072
*
