# ORCA input file
# SCF done       -199.183072849853          0.000419071556
! CAM-B3LYP def2-SVP def2/J RIJCOSX Grid4 TightSCF
%maxcore 5000
%tddft
    Mode sTDDFT
    Ethresh 5.0
    maxcore 5000
end

%pal
  nprocs 6
  end
* xyz 0 1
   C       -1.34974         0.54237        -1.19735
   C       -0.41499        -0.36817        -1.62288
   C       -0.72755        -1.66168        -2.08751
   N       -0.90996        -2.72538        -2.48130
   C        0.97768        -0.15842        -1.67648
   N        2.12011        -0.07231        -1.76793
   C       -2.79020         0.30222        -1.14223
   C       -3.42463         1.47460        -0.64322
   C       -4.77456         1.54823        -0.46339
   C       -5.57325         0.42530        -0.77911
   C       -4.94894        -0.75040        -1.28438
   C       -3.54557        -0.79412        -1.46110
   C       -5.75430        -1.86323        -1.59977
   C       -7.11080        -1.81950        -1.42381
   C       -7.72407        -0.66145        -0.92441
   C       -6.97110         0.43696        -0.60838
   C       -2.40211         2.49996        -0.37243
   O       -2.60582         3.64781        -0.01694
   C       -1.10692         1.87164        -0.68117
   C        0.11797         2.47916        -0.57111
   C        0.45621         3.68631         0.06098
   S        1.87145         4.46349        -0.60245
   C        1.65897         5.90665         0.32170
   C        0.53012         5.77937         1.15878
   C       -0.08989         4.48632         1.07986
   C       -1.10715         4.14880         2.01347
   C       -1.54933         2.76677         2.25085
   O       -0.95674         1.76516         1.92205
   O       -2.69482         2.69040         2.95353
   C       -1.62795         5.14799         2.81168
   C       -1.16126         6.45468         2.74228
   C       -0.07896         6.78334         1.95296
   O        0.38751         8.04984         1.91323
   C        2.62058         6.93553         0.15357
   N        3.43776         6.92701        -0.96487
   C        4.32110         7.95133        -0.86941
   C        5.36884         8.59816        -1.51207
   C        5.74459         9.65589        -0.66899
   N        4.94975         9.64596         0.45986
   C        4.06613         8.62174         0.35771
   C        3.01078         7.98538         0.99713
   C        6.72409        10.66131        -0.83579
   C        7.57523        10.77987        -1.88903
   C        8.50207        11.83904        -2.03794
   S        9.99143        11.52870        -2.85370
   C       10.70937        13.01483        -2.30598
   C        9.74764        13.80164        -1.64857
   C        8.48566        13.14879        -1.51381
   C        7.39714        13.84902        -0.93996
   C        5.98446        13.41335        -1.02603
   O        5.17142        13.50518        -0.14007
   O        5.65932        12.98045        -2.25286
   C        7.62317        15.09573        -0.39569
   C        8.85398        15.73559        -0.53138
   C        9.89468        15.14478        -1.21644
   O       11.00964        15.83083        -1.54090
   C       12.08099        13.21206        -2.52950
   C       12.94046        13.87949        -1.69313
   C       14.30021        14.25981        -1.98991
   C       14.91040        14.22256        -3.22012
   C       16.23428        14.64090        -3.45785
   N       17.30614        14.96363        -3.71615
   C       14.29825        13.78932        -4.41297
   N       13.86584        13.46520        -5.42714
   C       14.89655        14.78308        -0.76436
   C       13.91501        14.74440         0.26589
   C       12.66658        14.16567        -0.26732
   O       11.66978        13.89472         0.37548
   C       14.18066        15.17827         1.53147
   C       15.46495        15.68798         1.83106
   C       16.45425        15.72459         0.80764
   C       16.15001        15.26220        -0.49448
   C       17.73363        16.22733         1.11850
   C       18.02365        16.67495         2.37886
   C       17.04806        16.63975         3.38564
   C       15.79565        16.15728         3.11704
   H       -5.22772         2.45063        -0.07970
   H       -3.10600        -1.70084        -1.84483
   H       -5.27729        -2.75323        -1.98348
   H       -7.71868        -2.67779        -1.66852
   H       -8.79568        -0.64329        -0.79161
   H       -7.43764         1.33252        -0.22397
   H        0.94697         2.00904        -1.08714
   H       -2.91821         1.75768         3.09571
   H       -2.41828         4.90466         3.50291
   H       -1.63184         7.22284         3.34087
   H       -0.18242         8.62162         2.44520
   H        3.36108         6.26252        -1.71600
   H        5.81633         8.35909        -2.45479
   H        4.99699        10.33580         1.19057
   H        2.58636         8.21667         1.94920
   H        6.78874        11.38594        -0.03464
   H        7.62099         9.99291        -2.62816
   H        4.71737        12.75095        -2.28877
   H        6.80323        15.61262         0.07907
   H        8.97236        16.74051        -0.14989
   H       10.96556        16.72083        -1.16661
   H       12.48755        12.72194        -3.40574
   H       13.42007        15.13506         2.29732
   H       16.92356        15.29538        -1.24514
   H       18.48142        16.25293         0.33941
   H       19.00704        17.05835         2.60676
   H       17.29350        16.99578         4.37522
   H       15.04042        16.12650         3.88913
*
