# ORCA input file
# SCF done       -207.764058927654          0.000661642205
! CAM-B3LYP def2-SVP def2/J RIJCOSX Grid4 TightSCF
%maxcore 5000
%tddft
    Mode sTDDFT
    Ethresh 5.0
    maxcore 5000
end

%pal
  nprocs 6
  end
* xyz 0 1
   C       -1.01383         2.90382         2.20940
   C       -2.03767         3.54181         1.55732
   C       -2.73479         2.98986         0.46575
   N       -3.31854         2.58948        -0.43844
   C       -2.56375         4.77898         1.98140
   N       -3.04723         5.75939         2.33236
   C       -0.64030         1.50534         2.02787
   C        0.02951         1.06368         3.20655
   C        0.46143        -0.22360         3.34349
   C        0.25257        -1.13726         2.28504
   C       -0.39977        -0.69582         1.09785
   C       -0.84696         0.64141         0.98772
   C       -0.59211        -1.61514         0.04694
   C       -0.16493        -2.91000         0.16174
   C        0.47519        -3.34454         1.33167
   C        0.67887        -2.47722         2.37055
   C        0.16326         2.19510         4.14430
   O        0.62650         2.18830         5.26243
   C       -0.33074         3.38082         3.39096
   C        0.01308         4.63060         3.81222
   C        0.08205         5.83860         3.08618
   C        0.28063         7.09939         3.63052
   C        0.41423         8.09953         2.67005
   C        0.33651         7.60572         1.36647
   S        0.10604         5.90280         1.33869
   C        0.41181         8.51244         0.28791
   C        0.71375         9.83992         0.54345
   C        1.05885        10.26826         1.93897
   O        0.55348         9.41168         2.96047
   C        0.71178        10.62382        -0.61055
   C        0.40446         9.90820        -1.74992
   S        0.10670         8.22757        -1.38773
   C        0.33539        10.37892        -3.08982
   C       -0.04237         9.65816        -4.18827
   C        0.01591        10.38567        -5.40475
   C        0.47258        11.71021        -5.17371
   S        0.78232        12.02329        -3.48938
   C        0.68773        12.68128        -6.14251
   O        1.12840        13.86633        -5.63980
   C        1.31025        14.99187        -6.46065
   C        0.43923        12.30977        -7.47783
   C       -0.04561        10.99436        -7.70309
   C       -0.27434        10.02721        -6.73304
   O       -0.74162         8.85337        -7.23185
   C       -1.14267         7.80071        -6.39020
   S       -0.32286        10.66230        -9.38518
   C        0.23096        12.26609        -9.80633
   C        0.58726        13.00244        -8.70853
   C        0.28722        12.66606       -11.17287
   C        0.81777        13.82540       -11.70332
   C        0.74121        13.86644       -13.09994
   C        0.12619        12.73807       -13.64075
   S       -0.33295        11.61435       -12.41055
   C       -0.08654        12.67521       -15.03248
   C        0.47912        13.66044       -15.84332
   C        1.37788        14.69454       -15.23118
   O        1.16266        14.91361       -13.83719
   C        0.16863        13.50357       -17.18313
   C       -0.63856        12.39893       -17.43499
   S       -1.02666        11.56039       -15.93527
   C       -1.19854        11.87025       -18.60865
   C       -0.98896        12.17384       -19.93037
   C       -1.69670        11.51820       -21.01592
   C       -2.85341        10.78557       -20.92415
   C       -3.49531        10.18741       -22.02798
   N       -4.06607         9.67061       -22.88011
   C       -3.59790        10.55920       -19.74791
   N       -4.27854        10.34665       -18.84705
   C       -1.00671        11.83889       -22.26003
   C        0.03462        12.76257       -21.96695
   C        0.04987        13.04710       -20.52034
   O        0.79182        13.83394       -19.96453
   C        0.85957        13.25332       -22.93680
   C        0.68174        12.82676       -24.27227
   C       -0.35520        11.89802       -24.57358
   C       -1.19789        11.41218       -23.54691
   C       -0.52092        11.47515       -25.90789
   C        0.29778        11.94518       -26.89852
   C        1.31923        12.85903       -26.60053
   C        1.50641        13.29105       -25.31546
   H        0.95808        -0.54331         4.24751
   H       -1.33196         0.95495         0.07626
   H       -1.08874        -1.27641        -0.85046
   H       -0.31866        -3.60698        -0.64853
   H        0.80630        -4.36963         1.40570
   H        1.17141        -2.80640         3.27385
   H        0.38214         4.68552         4.83220
   H        0.29926         7.28558         4.68813
   H        0.64653        11.25782         2.15607
   H        2.15704        10.32315         2.04145
   H        0.92681        11.67687        -0.63259
   H       -0.33946         8.63121        -4.09082
   H        1.55966        15.80421        -5.77845
   H        0.39571        15.24680        -7.00343
   H        2.13893        14.84810        -7.16048
   H       -1.89288         8.12748        -5.66512
   H       -0.28878         7.35148        -5.87461
   H       -1.58573         7.05922        -7.05435
   H        0.94524        14.00792        -8.80942
   H        1.25444        14.61265       -11.11916
   H        1.23434        15.66807       -15.70747
   H        2.42938        14.39277       -15.37468
   H        0.51652        14.14795       -17.96911
   H       -1.89248        11.05969       -18.41674
   H        1.64163        13.95541       -22.68795
   H       -1.96959        10.70545       -23.80709
   H       -1.30959        10.77195       -26.13222
   H        0.16275        11.61480       -27.91760
   H        1.95723        13.21888       -27.39402
   H        2.29148        13.99487       -25.07994
*
