# ORCA input file
# SCF done       -227.752764590308          0.000560627876
! CAM-B3LYP def2-SVP def2/J RIJCOSX Grid4 TightSCF
%maxcore 5000
%tddft
    Mode sTDDFT
    Ethresh 5.0
    maxcore 5000
end

%pal
  nprocs 6
  end
* xyz 0 1
   C       -2.82680         1.43604         3.53577
   C       -3.26125         2.49505         4.28691
   C       -4.54219         2.57433         4.86813
   N       -5.58536         2.69991         5.33077
   C       -2.44555         3.59571         4.61969
   N       -1.81120         4.48516         4.97163
   C       -3.50425         0.15291         3.40159
   C       -2.54679        -0.82264         2.99447
   C       -2.88792        -2.13444         2.83244
   C       -4.22461        -2.53311         3.06020
   C       -5.18950        -1.55852         3.44756
   C       -4.80679        -0.20859         3.61814
   C       -6.52136        -1.96829         3.66113
   C       -6.88430        -3.27814         3.50519
   C       -5.93318        -4.23781         3.12756
   C       -4.63220        -3.87334         2.91005
   C       -1.23967        -0.16991         2.78855
   O       -0.18584        -0.68485         2.49438
   C       -1.50474         1.28890         2.95322
   C       -0.63000         2.20258         2.47105
   C       -0.87350         3.59525         2.19145
   C       -2.14064         4.03550         1.77642
   C       -2.33819         5.36567         1.51141
   C       -1.28669         6.28917         1.65696
   C       -0.02532         5.86075         2.04544
   C        0.17564         4.51747         2.29075
   C       -1.78513         7.60411         1.31540
   C       -3.13852         7.48933         0.95231
   C       -3.60130         6.05615         1.05688
   C       -4.08183         5.51585        -0.30286
   C       -3.02095         5.62377        -1.39161
   C       -4.72448         5.90233         2.10131
   C       -4.37295         6.51762         3.45050
   C       -3.86202         8.59137         0.57097
   C       -3.23794         9.84827         0.54311
   C       -1.89221         9.95049         0.91745
   C       -1.16236         8.84405         1.30080
   C       -3.97652        11.01627         0.12926
   C       -5.22300        11.06845        -0.45482
   C       -5.62926        12.37798        -0.73056
   C       -4.68107        13.33491        -0.34834
   S       -3.29330        12.62363         0.34206
   C       -5.18559        14.62609        -0.67518
   C       -6.44770        14.47381        -1.26263
   C       -6.77220        13.05787        -1.31752
   C       -7.90805        12.48804        -1.81554
   C       -8.95094        13.25821        -2.36980
   N       -9.79780        13.88632        -2.82140
   C       -8.11001        11.09268        -1.81041
   N       -8.27460         9.95754        -1.80317
   C       -7.03054        15.69236        -1.62441
   C       -6.22975        16.77035        -1.31712
   S       -4.72322        16.26365        -0.56190
   C       -6.50011        18.16864        -1.54487
   C       -7.58254        18.55415        -2.35091
   C       -7.83122        19.88857        -2.55172
   C       -7.01823        20.87156        -1.95794
   C       -5.94067        20.49969        -1.16551
   C       -5.69131        19.15704        -0.96905
   C       -7.52246        22.17254        -2.33703
   C       -8.63904        21.99129        -3.17261
   C       -8.92479        20.52357        -3.37486
   C       -8.81781        20.12810        -4.85936
   C       -7.46223        20.46827        -5.46716
   C      -10.32389        20.15608        -2.84412
   C      -10.50312        20.48731        -1.36754
   C       -9.32483        23.06187        -3.68630
   C       -8.91366        24.36505        -3.35932
   C       -7.77905        24.53117        -2.53808
   C       -7.08966        23.45622        -2.02265
   C       -9.53842        25.55761        -3.85025
   C      -10.73883        25.80083        -4.45129
   C      -11.11583        27.12296        -4.94500
   C      -10.28646        28.19663        -5.13941
   C      -10.71672        29.44388        -5.64084
   N      -10.99541        30.48507        -6.03658
   C       -8.89391        28.23554        -4.91250
   N       -7.75997        28.36698        -4.78057
   C      -12.53203        27.09529        -5.28590
   C      -13.01427        25.77345        -5.08354
   C      -11.92512        24.91365        -4.59013
   O      -12.03428        23.73324        -4.33003
   C      -14.31054        25.42714        -5.33492
   C      -15.20468        26.41073        -5.81172
   C      -14.73354        27.74079        -6.00902
   C      -13.38538        28.06805        -5.73768
   C      -15.63498        28.71613        -6.48255
   C      -16.93723        28.39419        -6.75171
   C      -17.39928        27.08362        -6.55840
   C      -16.55150        26.11312        -6.09811
   H       -2.14723        -2.86118         2.53346
   H       -5.55652         0.51198         3.90678
   H       -7.24890        -1.22605         3.95527
   H       -7.90660        -3.58241         3.67276
   H       -6.23675        -5.26724         3.00949
   H       -3.89594        -4.60812         2.61876
   H        0.35010         1.81778         2.20694
   H       -2.93739         3.31887         1.63507
   H        0.78787         6.56265         2.14997
   H        1.14817         4.16595         2.60192
   H       -4.96943         6.07432        -0.60646
   H       -4.37276         4.47029        -0.18066
   H       -2.72992         6.66099        -1.54255
   H       -3.40884         5.23543        -2.33038
   H       -2.13333         5.05441        -1.12400
   H       -4.93530         4.83814         2.23080
   H       -5.63037         6.37359         1.71417
   H       -3.44458         6.10477         3.83856
   H       -5.16377         6.31279         4.16840
   H       -4.25667         7.59556         3.36361
   H       -4.90270         8.49531         0.30499
   H       -1.41733        10.92132         0.89699
   H       -0.12555         8.94574         1.58277
   H       -5.80955        10.19925        -0.68671
   H       -8.00085        15.78019        -2.07621
   H       -8.20605        17.80776        -2.81669
   H       -5.30713        21.24445        -0.70809
   H       -4.85790        18.85417        -0.35087
   H       -9.60420        20.64532        -5.41197
   H       -8.99630        19.05469        -4.94911
   H       -7.27080        21.53758        -5.40881
   H       -7.43714        20.17196        -6.51320
   H       -6.66285        19.94796        -4.94358
   H      -10.48856        19.08794        -2.99957
   H      -11.06794        20.70206        -3.42636
   H       -9.78124        19.94794        -0.75741
   H      -11.50302        20.20904        -1.04368
   H      -10.37232        21.55327        -1.19525
   H      -10.17162        22.90689        -4.33065
   H       -7.45005        25.53355        -2.30350
   H       -6.22801        23.60983        -1.39052
   H       -8.92461        26.43727        -3.68906
   H      -14.64753        24.41370        -5.17416
   H      -13.06412        29.08549        -5.89265
   H      -15.27441        29.72341        -6.63141
   H      -17.61918        29.14795        -7.11592
   H      -18.43016        26.84719        -6.77607
   H      -16.90110        25.10218        -5.94702
*
