# ORCA input file
# SCF done       -237.911051067436          0.000809353665
! CAM-B3LYP def2-SVP def2/J RIJCOSX Grid4 TightSCF
%maxcore 5000
%tddft
    Mode sTDDFT
    Ethresh 5.0
    maxcore 5000
end

%pal
  nprocs 6
  end
* xyz 0 1
   C       -0.68267        -1.79160        -1.44694
   C       -0.19868        -1.02574        -0.42372
   C        1.09024        -1.18447         0.12924
   N        2.14247        -1.25059         0.58146
   C       -0.93680        -0.00593         0.20986
   N       -1.50637         0.82066         0.76687
   C       -0.05566        -2.97788        -2.00788
   C       -1.03904        -3.72221        -2.72585
   C       -0.74004        -4.91184        -3.32650
   C        0.57944        -5.41010        -3.24908
   C        1.57610        -4.65056        -2.56864
   C        1.23635        -3.42957        -1.94437
   C        2.89587        -5.14614        -2.52643
   C        3.21552        -6.33950        -3.11469
   C        2.23003        -7.09557        -3.76788
   C        0.94090        -6.63971        -3.83412
   C       -2.31548        -2.99114        -2.71915
   O       -3.37604        -3.31761        -3.18759
   C       -1.99571        -1.67569        -2.06687
   C       -2.78845        -0.61361        -2.28899
   C       -2.49706         0.78332        -2.03159
   C       -1.29308         1.40122        -2.38617
   C       -0.09122         0.84570        -3.05001
   O        0.11488        -0.26228        -3.47966
   N        0.83903         1.88753        -3.10007
   C        0.32826         3.08306        -2.58262
   O        0.90466         4.13319        -2.52644
   C       -1.04904         2.75320        -2.12915
   C       -1.97838         3.57442        -1.52136
   C       -3.18496         2.97467        -1.17718
   C       -3.44061         1.63009        -1.42276
   C       -4.74793         1.15780        -0.92365
   O       -5.18871         0.04955        -0.96941
   S       -5.62690         2.54245        -0.19476
   C       -4.28984         3.69930        -0.50801
   O       -4.32831         4.85367        -0.21725
   C        2.11615         1.65829        -3.59632
   C        3.08817         2.57085        -3.72985
   C        4.38697         2.24583        -4.22445
   C        5.41456         3.12928        -4.48912
   C        6.55228         2.48210        -4.98047
   C        6.38320         1.09309        -5.07543
   S        4.83573         0.58338        -4.57412
   C        7.57562         0.52247        -5.59363
   C        8.49774         1.55671        -5.83143
   C        7.88748         2.82115        -5.45508
   C        8.44572         4.06221        -5.53842
   C        7.75481         5.22527        -5.13681
   N        7.19192         6.17015        -4.81382
   C        9.74615         4.26589        -6.04823
   N       10.79503         4.43569        -6.47830
   C        9.71036         1.08704        -6.33694
   C        9.70190        -0.28239        -6.49916
   S        8.18031        -1.00541        -6.01349
   C       10.75825        -1.12685        -7.00122
   C       10.50912        -2.14836        -7.93072
   C        9.25765        -2.49538        -8.64127
   O        8.19179        -1.94102        -8.64451
   N        9.55701        -3.62836        -9.41854
   C       10.90685        -3.98359        -9.33575
   O       11.44017        -4.89432        -9.90607
   C       11.51194        -2.99649        -8.40145
   C       12.83156        -2.86362        -8.01342
   C       13.09633        -1.84978        -7.09977
   C       12.10391        -1.01627        -6.58629
   C       12.58355        -0.12098        -5.51145
   O       11.94972         0.59785        -4.80026
   S       14.36527        -0.31538        -5.33110
   C       14.45693        -1.60512        -6.56829
   O       15.46367        -2.16117        -6.88216
   C        8.54440        -4.28142       -10.09659
   C        8.68782        -5.37978       -10.85569
   C        7.59435        -6.04703       -11.48773
   C        6.31791        -6.15718       -11.02874
   C        5.22811        -6.81151       -11.74000
   C        5.17056        -7.04376       -13.08758
   C        4.07559        -7.65432       -13.73551
   N        3.21789        -8.15143       -14.31364
   C        6.16720        -6.66963       -14.01484
   N        6.92183        -6.37425       -14.82807
   C        4.16249        -7.07777       -10.78391
   C        4.53512        -6.52094        -9.52779
   C        5.86453        -5.89685        -9.63204
   O        6.46640        -5.34659        -8.73442
   C        3.71290        -6.58054        -8.43895
   C        2.45825        -7.21778        -8.55871
   C        2.09004        -7.80367        -9.80445
   C        2.96046        -7.72214       -10.91526
   C        0.84247        -8.45239        -9.90695
   C       -0.00519        -8.51230        -8.83460
   C        0.35379        -7.92355        -7.61290
   C        1.55860        -7.28923        -7.47679
   H       -1.50142        -5.46445        -3.85661
   H        2.00964        -2.87167        -1.43986
   H        3.64920        -4.56602        -2.01437
   H        4.22859        -6.71056        -3.07637
   H        2.49738        -8.04073        -4.21722
   H        0.17749        -7.21777        -4.33357
   H       -3.75277        -0.82630        -2.74038
   H       -1.78311         4.61421        -1.31345
   H        2.26055         0.62090        -3.87350
   H        2.92085         3.60422        -3.46596
   H        5.32533         4.18917        -4.33445
   H       10.54488         1.70937        -6.60230
   H       13.61385        -3.50594        -8.38448
   H        7.59194        -3.78793        -9.96386
   H        9.67295        -5.77738       -11.05300
   H        7.84949        -6.56683       -12.40379
   H        4.01380        -6.14104        -7.49925
   H        2.65370        -8.17481       -11.84470
   H        0.56776        -8.89753       -10.85173
   H       -0.95889        -9.01036        -8.92294
   H       -0.33290        -7.97600        -6.78133
   H        1.83936        -6.82952        -6.54015
*
