# ORCA input file
# SCF done       -183.169892363033          0.000837898264
! CAM-B3LYP def2-SVP def2/J RIJCOSX Grid4 TightSCF
%maxcore 5000
%tddft
    Mode sTDDFT
    Ethresh 5.0
    maxcore 5000
end

%pal
  nprocs 6
  end
* xyz 0 1
   C       -2.67121        -0.79360        -3.53354
   C       -1.69805        -0.00895        -3.01758
   C       -0.66454        -0.49432        -2.19273
   C       -0.59818        -1.91808        -1.85170
   C       -1.47874        -2.85444        -2.27172
   S       -2.82020        -2.50076        -3.28099
   C        0.54982        -2.04855        -1.02286
   C        1.16322        -0.80727        -0.85310
   C        2.30377        -0.90538        -0.02399
   C        2.51715        -2.18061         0.39586
   S        1.35369        -3.31705        -0.18721
   C        0.40508         0.18245        -1.58918
   C        0.64117         1.57236        -1.70682
   C        1.68487         2.25950        -1.17305
   C        1.87159         3.65644        -1.30189
   C        1.07822         4.60069        -1.93830
   C        1.59641         5.88743        -1.82982
   C        2.80293         5.94112        -1.10576
   S        3.29016         4.39430        -0.56181
   C        3.23208         7.28368        -1.04424
   C        2.29785         8.08938        -1.72649
   C        1.24381         7.23543        -2.24670
   C        0.15292         7.61442        -2.97484
   C       -0.80216         6.68241        -3.42877
   N       -1.58059         5.92372        -3.79581
   C       -0.08816         8.95883        -3.32493
   N       -0.29171        10.05084        -3.61039
   C        2.62738         9.43988        -1.70782
   C        3.80838         9.68422        -1.02068
   S        4.52004         8.19935        -0.39043
   C        4.40766        10.93908        -0.80033
   S        3.62002        12.39139        -1.36352
   C        4.86837        13.43797        -0.72650
   C        5.84397        12.66833        -0.11938
   C        5.59927        11.26590        -0.15109
   C        6.62918        10.53774         0.48695
   C        7.60625        11.35182         0.97854
   C        8.82370        10.97277         1.69491
   O        9.64680        11.75221         2.10532
   O        8.91556         9.63928         1.84408
   C       10.07118         9.18233         2.53123
   S        7.32635        13.05528         0.69282
   C        4.77709        14.84226        -0.85241
   C        5.67388        15.79551        -0.39690
   C        5.24023        17.09040        -0.67650
   C        4.00550        17.12586        -1.35143
   S        3.38108        15.56296        -1.64476
   C        3.64755        18.47524        -1.57232
   C        4.65254        19.29983        -1.03774
   C        5.68958        18.45670        -0.46332
   C        6.84039        18.86730         0.14460
   C        7.78470        17.96067         0.67005
   N        8.55992        17.23500         1.10267
   C        7.16328        20.23257         0.28564
   N        7.42144        21.34524         0.39281
   C        4.38426        20.65882        -1.19264
   C        3.18104        20.88390        -1.84031
   S        2.37530        19.37912        -2.26887
   C        2.57249        22.13294        -2.16661
   C        3.08773        23.34380        -1.77830
   C        2.51427        24.58609        -2.06509
   C        1.21383        24.67533        -2.75498
   C        0.53845        23.61301        -3.23956
   S        1.09143        21.99469        -3.11294
   C        0.88893        26.05762        -2.76726
   C        1.90674        26.77954        -2.13956
   C        1.64206        28.16814        -2.12545
   C        0.45840        28.45666        -2.72471
   S       -0.38183        27.06733        -3.33288
   C        2.93583        25.87311        -1.71592
   C        4.14313        26.30561        -1.06295
   C        5.32363        25.68837        -1.07779
   H       -3.45345        -0.40380        -4.16237
   H       -1.72479         1.04441        -3.25832
   H       -1.39418        -3.89373        -1.99659
   H        2.94662        -0.09451         0.26453
   H        3.30562        -2.53712         1.02963
   H       -0.09068         2.12318        -2.28118
   H        2.44033         1.73637        -0.60849
   H        0.16624         4.35486        -2.44933
   H        2.05372        10.22782        -2.16233
   H        6.66314         9.46883         0.58494
   H        9.97876         8.10116         2.59215
   H       10.11821         9.62251         3.52944
   H       10.97354         9.46122         1.98305
   H        6.58620        15.54383         0.11172
   H        5.03356        21.44390        -0.85311
   H        3.98363        23.33162        -1.17683
   H       -0.40488        23.70702        -3.75429
   H        2.28732        28.91417        -1.69802
   H        0.00560        29.41990        -2.85735
   H        4.05601        27.25657        -0.55017
   H        5.49747        24.78124        -1.62951
   H        6.17266        26.09779        -0.55841
*
