# ORCA input file
# SCF done       -198.248823231679          0.000805153951
! CAM-B3LYP def2-SVP def2/J RIJCOSX Grid4 TightSCF
%maxcore 5000
%tddft
    Mode sTDDFT
    Ethresh 5.0
    maxcore 5000
end

%pal
  nprocs 6
  end
* xyz 0 1
   C      -11.00356       -10.72407        -7.24619
   C      -10.20838       -11.07169        -6.17894
   C       -9.33103       -12.17417        -6.17463
   N       -8.59631       -13.05498        -6.10755
   C      -10.16199       -10.41040        -4.93520
   N      -10.06964        -9.94638        -3.88779
   C      -11.08335       -11.45790        -8.50798
   C      -12.05597       -10.84001        -9.33096
   C      -12.36486       -11.29948       -10.58719
   C      -11.67727       -12.42336       -11.05860
   C      -10.70642       -13.03297       -10.23081
   C      -10.39645       -12.56913        -8.95752
   S       -9.97284       -14.40348       -11.00841
   C      -10.96745       -14.14070       -12.41624
   C      -11.80666       -13.08359       -12.31148
  Br      -10.80389       -15.28760       -13.89188
   C      -12.62554        -9.67498        -8.62164
   O      -13.49146        -8.93201        -9.04167
   C      -11.91842        -9.61311        -7.32673
   C      -12.08755        -8.61589        -6.38852
   C      -12.98269        -7.55522        -6.50266
   C      -13.08122        -6.55297        -5.55726
   C      -13.95420        -5.43971        -5.59798
   C      -13.82116        -4.59077        -4.53932
   C      -12.83409        -4.99366        -3.61294
   S      -12.08993        -6.49102        -4.11737
   C      -12.42699        -4.35182        -2.45514
   C      -12.89016        -3.12171        -1.92783
   C      -12.25622        -2.75374        -0.78351
   C      -11.25509        -3.66963        -0.35371
   S      -11.16154        -5.01714        -1.45944
   C      -10.51854        -3.54495         0.79753
   C       -9.49531        -4.39679         1.25371
   O       -9.14570        -4.28698         2.57523
   C       -8.70348        -5.38713         0.68266
   C       -8.28735        -6.02490        -0.56940
   O       -8.59513        -5.80647        -1.71448
   N       -7.33419        -6.95916        -0.17349
   C       -7.01324        -6.94449         1.17981
   O       -6.19251        -7.64449         1.71336
   C       -7.88850        -5.90239         1.72229
   C       -8.18391        -5.19955         2.87092
   C       -7.62173        -5.30262         4.17469
   C       -7.88934        -4.44143         5.17512
   C       -7.33411        -4.58570         6.50501
   C       -7.29921        -5.81531         7.09718
   S       -6.69765        -5.82059         8.70279
   C       -6.41866        -4.10940         8.60104
   C       -6.80113        -3.55879         7.36977
   C       -6.53920        -2.18989         7.12437
   C       -6.87311        -1.63628         5.76318
   C       -8.28558        -1.04678         5.72140
   C       -5.97582        -1.39109         8.11127
   C       -5.71241         0.06904         7.84420
   C       -4.23520         0.32010         7.53553
   C       -5.60415        -1.94951         9.36177
   C       -4.92568        -1.37946        10.50923
   C       -4.69972        -2.31566        11.48004
   S       -5.27689        -3.88518        11.11959
   C       -5.83196        -3.31953         9.57529
   C       -4.47448        -0.02225        10.71679
   C       -3.36968         0.29861        11.41734
   C       -2.93894         1.64249        11.61994
   O       -3.64000         2.69293        11.11185
   C       -1.83278         2.13776        12.27540
   C       -0.64202         1.77090        13.04165
   O       -0.21481         0.69930        13.38478
   N       -0.04440         3.00021        13.32489
   C       -0.71111         4.12035        12.83314
   O       -0.35101         5.25944        12.97538
   C       -1.87795         3.55252        12.14996
   C       -3.00609         3.85543        11.42542
   C       -3.53196         5.12347        11.00467
   C       -4.64715         5.26780        10.29188
   H      -13.11230       -10.80684       -11.18915
   H       -9.64651       -13.06910        -8.36800
   H      -12.48859       -12.77933       -13.08439
   H      -11.47333        -8.63943        -5.49654
   H      -13.62493        -7.50318        -7.37007
   H      -14.64631        -5.30170        -6.40951
   H      -14.39856        -3.69379        -4.40499
   H      -13.66545        -2.54975        -2.40469
   H      -12.46283        -1.85304        -0.23300
   H      -10.77274        -2.73453         1.46779
   H       -6.87737        -7.56838        -0.83736
   H       -6.91141        -6.10684         4.29775
   H       -8.58365        -3.63396         4.99515
   H       -7.65642        -6.73384         6.67365
   H       -6.79057        -2.44151         5.03180
   H       -6.15051        -0.87481         5.47084
   H       -9.01737        -1.77075         6.07297
   H       -8.54254        -0.75290         4.70590
   H       -8.36028        -0.17116         6.36223
   H       -6.02487         0.65611         8.70620
   H       -6.31048         0.42065         7.00736
   H       -3.60323        -0.01370         8.35445
   H       -4.05768         1.38077         7.37235
   H       -3.94205        -0.22196         6.63902
   H       -4.24208        -2.14265        12.43434
   H       -5.05638         0.78727        10.30678
   H       -2.71823        -0.45151        11.83960
   H        0.81430         3.07262        13.85193
   H       -2.93926         5.97130        11.31634
   H       -5.23038         4.41572         9.98587
   H       -5.00463         6.23791         9.99681
*
