# ORCA input file
# SCF done       -179.821205190613          0.000996827007
! CAM-B3LYP def2-SVP def2/J RIJCOSX Grid4 TightSCF
%maxcore 5000
%tddft
    Mode sTDDFT
    Ethresh 5.0
    maxcore 5000
end

%pal
  nprocs 6
  end
* xyz 0 1
   C       -4.51477         2.28278         4.25965
   C       -5.39109         3.33724         4.31705
   C       -6.00428         3.79435         5.50009
   N       -6.53388         4.21886         6.42703
   C       -5.85454         4.04431         3.19003
   N       -6.29841         4.63995         2.31332
   C       -4.15012         1.42392         5.38040
   C       -3.43491         0.31090         4.87720
   C       -2.97926        -0.70041         5.68645
   C       -3.23720        -0.60652         7.05897
   C       -3.94437         0.51360         7.55296
   C       -4.40990         1.53500         6.73284
   S       -4.12949         0.44065         9.27897
   C       -3.26652        -1.06980         9.31136
   C       -2.86345        -1.50571         8.09483
  Br       -2.93838        -1.90817        10.95280
   C       -3.30375         0.43684         3.41240
   O       -2.73416        -0.33887         2.66748
   C       -3.93608         1.72185         3.06005
   C       -3.87901         2.32080         1.82539
   C       -3.52921         1.71344         0.59492
   S       -2.66063         2.63700        -0.60620
   C       -2.52308         1.25448        -1.61487
   C       -3.13207         0.14745        -1.10642
   C       -3.18740        -1.18086        -1.78158
   C       -3.74854         0.40900         0.14581
   C       -4.55817        -0.49391         0.91409
   C       -5.66190        -0.04153         1.56066
   C       -6.25662        -0.56798         2.73456
   C       -5.67813        -1.51934         3.51770
   C       -5.97324        -1.79443         4.87289
   S       -5.26709        -3.21355         5.60064
   C       -5.86789        -2.80578         7.19272
   C       -6.58712        -1.60613         7.13325
   C       -6.62642        -1.04788         5.84427
   S       -7.30080         0.56154         5.54336
   C       -9.07854         0.12979         5.52044
   C       -9.48234        -0.65558         6.76123
   C       -8.86618        -0.06532         8.01951
   S       -7.30957        -0.88172         8.56318
   C       -5.53865        -3.67616         8.24457
   C       -5.78382        -3.49236         9.57995
   C       -5.39240        -4.39257        10.57122
   C       -5.61422        -4.17752        11.91548
   C       -5.19805        -4.98739        12.99446
   C       -5.54404        -4.50239        14.22248
   C       -6.26318        -3.29093        14.17456
   S       -6.47731        -2.77659        12.51791
   C       -6.78038        -2.55069        15.22309
   C       -6.67746        -2.81263        16.60659
   C       -7.31852        -1.89214        17.37365
   C       -7.97387        -0.85580        16.64659
   S       -7.69862        -1.08970        14.93113
   C       -8.72105         0.10632        17.27176
   C       -9.49640         1.19116        16.77763
   C      -10.27794         1.93240        17.68875
   O      -10.21574         1.50110        18.97840
   C      -10.45699         2.36713        20.06767
   C      -11.11458         3.00575        17.25583
   O      -11.89189         3.58891        18.21582
   C      -12.75974         4.63132        17.84119
   C      -11.14316         3.40078        15.93775
   C      -10.35305         2.71288        15.01020
   C       -9.54061         1.59985        15.41782
   N       -8.87484         1.08264        14.39605
   S       -9.23017         1.90442        13.05233
   N      -10.25416         2.96303        13.70572
   H       -2.44252        -1.54189         5.27663
   H       -4.94550         2.36925         7.15376
   H       -2.32075        -2.41898         7.93215
   H       -4.05194         3.39052         1.77567
   H       -1.99398         1.33890        -2.54445
   H       -2.67578        -1.14691        -2.73968
   H       -4.22263        -1.47904        -1.94241
   H       -2.71336        -1.93483        -1.15445
   H       -4.22252        -1.51631         1.00474
   H       -6.05298         0.92287         1.25423
   H       -7.12802        -0.04291         3.09489
   H       -4.86495        -2.10375         3.10791
   H       -9.58410         1.09434         5.48242
   H       -9.29077        -0.42777         4.60750
   H       -9.18130        -1.70130         6.65456
   H      -10.57194        -0.63640         6.84343
   H       -8.65912         0.99810         7.89894
   H       -9.51370        -0.20615         8.88467
   H       -5.01006        -4.57274         7.94345
   H       -6.28842        -2.59662         9.91038
   H       -4.86320        -5.29244        10.28702
   H       -4.64816        -5.89770        12.83281
   H       -5.30453        -4.98521        15.15297
   H       -6.14012        -3.65926        16.99556
   H       -7.35800        -1.92108        18.44870
   H       -8.75828         0.00948        18.34946
   H       -9.99330         1.87813        20.92547
   H      -11.52462         2.49277        20.25601
   H       -9.99736         3.34552        19.91643
   H      -12.20954         5.49078        17.44643
   H      -13.27424         4.92145        18.75612
   H      -13.49368         4.29605        17.10228
   H      -11.76028         4.20930        15.58826
*
