# ORCA input file
# SCF done       -204.912680446857          0.000512725299
! CAM-B3LYP def2-SVP def2/J RIJCOSX Grid4 TightSCF
%maxcore 5000
%tddft
    Mode sTDDFT
    Ethresh 5.0
    maxcore 5000
end

%pal
  nprocs 6
  end
* xyz 0 1
   C       -4.85512        -0.66644         1.30028
   C       -3.71370        -1.40803         1.45957
   C       -3.55930        -2.42834         2.42160
   N       -3.37232        -3.26408         3.18564
   C       -2.54930        -1.27248         0.67430
   N       -1.57353        -1.22868         0.07090
   C       -6.09787        -0.83975         2.03934
   C       -7.07584         0.03522         1.50419
   C       -8.35896         0.09743         1.99138
   C       -8.69595        -0.74837         3.05302
   C       -7.71088        -1.61632         3.58443
   C       -6.41244        -1.67608         3.09515
   S       -8.33689        -2.56667         4.89652
   C       -9.89249        -1.79997         4.71494
   C       -9.94244        -0.87804         3.72385
  Br      -11.30050        -2.28583         5.85270
   C       -6.48897         0.82730         0.40840
   O       -7.00923         1.74781        -0.17733
   C       -5.07443         0.36059         0.29950
   C       -4.13300         0.95044        -0.48533
   C       -4.43313         1.77081        -1.60318
   O       -3.52208         2.69268        -2.02296
   C       -5.48377         1.76814        -2.49960
   C       -6.72512         1.07113        -2.87508
   O       -7.27812         0.11896        -2.39543
   N       -7.13326         1.74084        -4.02516
   C       -6.27744         2.74502        -4.46743
   O       -6.44693         3.41340        -5.45539
   C       -5.19485         2.74201        -3.48167
   C       -3.97193         3.30356        -3.14507
   C       -3.17387         4.32089        -3.73599
   C       -3.50299         4.95954        -4.87916
   C       -2.69183         6.03057        -5.41520
   C       -2.16198         6.96139        -4.56403
   S       -1.28760         8.21998        -5.32741
   C       -1.56127         7.47036        -6.87078
   C       -2.33906         6.30535        -6.79032
   C       -2.59564         5.57064        -7.97280
   C       -3.46938         4.34982        -7.88113
   C       -4.94569         4.73860        -7.99929
   C       -2.08816         6.00276        -9.19024
   C       -2.36925         5.23446       -10.45558
   C       -1.33919         4.12438       -10.68255
   C       -1.29669         7.17435        -9.26059
   C       -0.67857         7.82908       -10.38810
   C       -0.06817         8.99193       -10.03248
   S       -0.15261         9.36142        -8.35581
   C       -1.06953         7.91287        -8.08731
   C       -0.59633         7.36076       -11.76785
   C       -0.80362         8.14709       -12.81879
   C       -0.61055         7.70896       -14.24457
   C        0.73367         8.25443       -14.75166
   O        1.10082         9.38669       -14.78215
   O        1.51556         7.21746       -15.15859
   C        0.83417         6.04308       -15.00216
   C       -0.43787         6.24263       -14.46081
   C       -1.29165         5.18199       -14.22446
   C       -0.80846         3.93482       -14.57264
   C        0.45313         3.73821       -15.13369
   C        1.31317         4.79592       -15.36039
   C        0.53832         2.30182       -15.54904
   C       -0.78242         1.74116       -14.97085
   O       -1.15043         0.60829       -14.99561
   O       -1.50668         2.75366       -14.45354
   C        0.45325         2.22643       -17.03968
   S        0.92454         0.85589       -17.99570
   C        0.44366         1.57760       -19.47622
   C       -0.07811         2.82777       -19.26051
   C       -0.07298         3.17318       -17.86771
   O       -0.58382         4.41104       -17.67453
   C       -0.90739         4.85750       -18.92092
   N       -1.45483         6.16222       -18.99263
   O       -1.76510         6.56810       -20.09369
   O       -1.56808         6.77581       -17.95122
   C       -0.63550         3.96316       -19.91813
   H       -9.08107         0.77315         1.56118
   H       -5.69634        -2.34860         3.53716
   H      -10.82111        -0.31148         3.47528
   H       -3.07867         0.81163        -0.28392
   H       -7.98019         1.49752        -4.51926
   H       -2.24804         4.53878        -3.22253
   H       -4.42514         4.70239        -5.37926
   H       -2.30377         7.00232        -3.50145
   H       -3.28992         3.85716        -6.92451
   H       -3.22302         3.63003        -8.65896
   H       -5.18666         5.55325        -7.32104
   H       -5.58375         3.89412        -7.75514
   H       -5.17526         5.07090        -9.00927
   H       -2.35674         5.92691       -11.29731
   H       -3.36478         4.79492       -10.41704
   H       -0.33033         4.52992       -10.71983
   H       -1.54282         3.60466       -11.61621
   H       -1.36928         3.39961        -9.87248
   H        0.47675         9.64925       -10.68188
   H       -0.29881         6.33231       -11.91469
   H       -1.09262         9.17975       -12.69304
   H       -1.40831         8.12101       -14.87161
   H       -2.27990         5.31507       -13.81876
   H        2.28518         4.66754       -15.80584
   H        1.39301         1.73895       -15.17025
   H        0.57063         1.04621       -20.39664
   H       -0.81071         4.11153       -20.96356
*
