# ORCA input file
# SCF done       -198.422528716750          0.000360272958
! CAM-B3LYP def2-SVP def2/J RIJCOSX Grid4 TightSCF
%maxcore 5000
%tddft
    Mode sTDDFT
    Ethresh 5.0
    maxcore 5000
end

%pal
  nprocs 6
  end
* xyz 0 1
   C       -4.87881         9.21043        -3.91117
   C       -4.00882         8.53069        -4.72206
   C       -3.29874         9.11976        -5.78826
   N       -2.69148         9.55325        -6.66068
   C       -3.74553         7.14835        -4.62072
   N       -3.50652         6.02549        -4.60894
   C       -5.27507        10.60410        -4.04888
   C       -6.32686        10.87326        -3.13794
   C       -6.91769        12.10909        -3.03511
   C       -6.44778        13.12898        -3.86891
   C       -5.39269        12.85239        -4.77168
   C       -4.79616        11.60280        -4.87769
   S       -4.95917        14.25777        -5.69734
   C       -6.18506        15.18381        -4.87244
   C       -6.88428        14.47940        -3.95112
  Br       -6.42467        16.99302        -5.30416
   C       -6.62680         9.65966        -2.35075
   O       -7.44257         9.55603        -1.46228
   C       -5.64726         8.64033        -2.81810
   C       -5.40126         7.47411        -2.16948
   C       -6.20104         6.95380        -1.08971
   C       -5.56549         6.64592         0.08438
   S       -6.61668         6.30543         1.38645
   C       -7.98596         6.47258         0.32696
   C       -7.63308         6.78926        -0.99215
   C       -8.64310         6.82817        -1.98487
   C       -8.24314         6.91914        -3.43458
   C       -7.46422         5.67595        -3.86964
   C       -9.97724         6.68753        -1.61809
   C      -11.08798         6.83924        -2.62466
   C      -11.40966         5.51943        -3.33133
   C      -10.32830         6.40795        -0.27543
   C      -11.62163         6.22057         0.34411
   C      -11.51326         6.02112         1.68995
   S       -9.90378         5.99609         2.28768
   C       -9.31097         6.30338         0.68618
   C      -12.92728         6.16818        -0.28268
   C      -14.01741         6.73778         0.27167
   C      -15.35218         6.68568        -0.21801
   S      -16.44053         7.93901         0.27437
   C      -17.77396         7.30805        -0.64612
   C      -17.36348         6.15358        -1.35070
   C      -16.00444         5.78863        -1.07949
   C      -15.47723         4.60541        -1.63629
   C      -16.23666         3.87720        -2.50506
   F      -15.73401         2.76168        -3.05829
   C      -17.53250         4.30205        -2.85860
   F      -18.22921         3.59211        -3.76755
   C      -18.09809         5.40823        -2.29128
   C      -19.00885         7.97096        -0.55485
   C      -20.22353         7.43359        -0.89607
   C      -21.45454         8.08898        -0.85184
   C      -22.61895         7.43366        -1.20844
   C      -23.95088         7.89818        -1.24179
   C      -24.86299         6.96369        -1.65634
   C      -24.28988         5.71701        -1.96671
   S      -22.56292         5.76204        -1.72808
   C      -24.83679         4.51378        -2.39135
   C      -26.15613         4.10592        -2.66148
   C      -26.25571         2.79410        -3.03241
   C      -25.01939         2.09837        -3.06554
   S      -23.72709         3.18821        -2.62779
   C      -24.81962         0.77889        -3.39469
   C      -23.59458         0.08151        -3.38258
   S      -23.53567        -1.56952        -3.99312
   C      -21.85731        -1.77303        -3.68473
   C      -21.33472        -0.62937        -3.12916
   C      -22.31155         0.40318        -2.96305
   O      -21.74766         1.48665        -2.38811
   C      -20.44231         1.17244        -2.19618
   N      -19.62911         2.15637        -1.59247
   O      -18.47605         1.84837        -1.34963
   O      -20.12466         3.23751        -1.34576
   C      -20.12097        -0.09024        -2.61853
   H       -7.71702        12.28304        -2.33192
   H       -3.99078        11.44117        -5.57471
   H       -7.67424        14.89365        -3.35167
   H       -4.47798         6.94442        -2.37184
   H       -4.50825         6.69735         0.26422
   H       -7.63589         7.80724        -3.61052
   H       -9.11990         7.00662        -4.07024
   H       -6.50911         5.60216        -3.35581
   H       -7.26871         5.71297        -4.93917
   H       -8.03668         4.77685        -3.65248
   H      -10.82747         7.59671        -3.36493
   H      -11.97400         7.20743        -2.10652
   H      -10.59663         5.22440        -3.98952
   H      -12.31456         5.61863        -3.92736
   H      -11.55274         4.71901        -2.60856
   H      -12.31983         5.83078         2.37100
   H      -13.01281         5.62202        -1.20615
   H      -13.87888         7.36989         1.14055
   H      -14.49780         4.24824        -1.37018
   H      -19.09218         5.68832        -2.59153
   H      -18.98383         8.96500        -0.12447
   H      -20.25589         6.39358        -1.18568
   H      -21.50950         9.12574        -0.54939
   H      -24.20464         8.90487        -0.95816
   H      -25.92046         7.14316        -1.74012
   H      -26.99284         4.77650        -2.57409
   H      -27.18075         2.30085        -3.27453
   H      -25.68319         0.20711        -3.70570
   H      -21.37426        -2.69732        -3.92177
   H      -19.15491        -0.54755        -2.56636
*
