# ORCA input file
# SCF done       -188.537897830299          0.000744692530
! CAM-B3LYP def2-SVP def2/J RIJCOSX Grid4 TightSCF
%maxcore 5000
%tddft
    Mode sTDDFT
    Ethresh 5.0
    maxcore 5000
end

%pal
  nprocs 6
  end
* xyz 0 1
   C      -11.08936        -6.44275       -10.38539
   C      -10.33062        -7.10597        -9.44623
   C       -9.60057        -8.28186        -9.70705
   N       -8.97750        -9.23750        -9.84549
   C      -10.15567        -6.73614        -8.09869
   N       -9.93809        -6.52817        -6.98839
   C      -11.23892        -6.85067       -11.78185
   C      -12.09128        -5.92739       -12.43474
   C      -12.42406        -6.03588       -13.76161
   C      -11.88877        -7.10898       -14.48353
   C      -11.03925        -8.02591       -13.82372
   C      -10.70314        -7.91592       -12.47910
   S      -10.48688        -9.27415       -14.90042
   C      -11.39340        -8.55456       -16.20421
   C      -12.07504        -7.43856       -15.85439
  Br      -11.35351        -9.34458       -17.90583
   C      -12.51813        -4.89215       -11.46773
   O      -13.25391        -3.95184       -11.69901
   C      -11.86792        -5.24860       -10.19463
   C      -11.99872        -4.53635        -9.01882
   C      -12.75601        -3.38418        -8.84413
   C      -12.82315        -2.73539        -7.62405
   C      -13.54709        -1.56549        -7.30064
   C      -13.41136        -1.16340        -6.00191
   C      -12.57217        -1.99918        -5.23872
   S      -11.96119        -3.31397        -6.22058
   C      -12.19689        -1.91737        -3.91041
   C      -12.53606        -0.96793        -2.91881
   C      -11.96291        -1.21400        -1.71035
   C      -11.13421        -2.37335        -1.66429
   S      -11.13171        -3.12699        -3.25273
   C      -10.46437        -2.81702        -0.56020
   C       -9.62322        -3.96489        -0.40073
   C       -9.08359        -4.21823         0.87536
   C       -8.27676        -5.31505         1.14599
   C       -7.96486        -6.17072         0.07776
   C       -8.48685        -5.93570        -1.20819
   C       -9.30959        -4.84948        -1.43810
   C       -8.06984        -6.93731        -2.15780
   C       -7.24731        -7.90624        -1.56486
   S       -6.97848        -7.60137         0.14383
   C       -6.72977        -8.96416        -2.29191
   C       -7.04665        -9.05096        -3.63529
   C       -7.86377        -8.09994        -4.23873
   C       -8.37655        -7.04500        -3.51128
   C       -7.77790        -5.54547         2.48669
   S       -6.15858        -6.05756         2.77138
   C       -6.32263        -5.97992         4.49422
   C       -7.63017        -5.61786         4.84058
   C       -8.45431        -5.36612         3.69146
   C       -9.82262        -5.05462         3.86102
   C      -10.33032        -4.97004         5.12080
   F      -11.62967        -4.67387         5.30300
   C       -9.52079        -5.22035         6.25395
   F      -10.07852        -5.15568         7.47664
   C       -8.20546        -5.55303         6.12674
   C       -5.17466        -6.27762         5.27664
   C       -4.94386        -5.92197         6.56053
   C       -3.77530        -6.28454         7.28739
   C       -3.47787        -5.92118         8.57489
   C       -2.25648        -6.45201         9.04571
   C       -1.62195        -7.24527         8.06357
   S       -2.53017        -7.31303         6.58979
   N       -0.47550        -7.88104         8.22067
   C        0.08922        -7.75281         9.39918
   C       -0.42537        -6.98712        10.46556
   C       -1.61103        -6.30635        10.29362
   C       -2.22685        -5.47307        11.37904
   C       -3.25346        -6.28983        12.16702
   C        0.46347        -6.97264        11.67449
   C        1.42298        -8.15348        11.54948
   S        1.60048        -8.54328         9.76413
   H      -13.07610        -5.31570       -14.23059
   H      -10.05052        -8.64175       -12.02380
   H      -12.68403        -6.86949       -16.53291
   H      -11.46554        -4.90025        -8.14812
   H      -13.30879        -2.97903        -9.67866
   H      -14.14498        -1.05761        -8.03633
   H      -13.88945        -0.29677        -5.58090
   H      -13.18766        -0.13802        -3.12587
   H      -12.10514        -0.60099        -0.83756
   H      -10.59730        -2.21560         0.33168
   H       -9.28373        -3.51700         1.67131
   H       -9.69062        -4.70502        -2.43270
   H       -6.09763        -9.69816        -1.81697
   H       -6.65465        -9.86842        -4.22108
   H       -8.10368        -8.18397        -5.28740
   H       -9.00957        -6.31429        -3.98978
   H      -10.46978        -4.91824         3.01042
   H       -7.63765        -5.79632         7.00776
   H       -4.39151        -6.81575         4.75607
   H       -5.64570        -5.30405         7.10077
   H       -4.12707        -5.29523         9.16094
   H       -2.71842        -4.60634        10.93419
   H       -1.45096        -5.11003        12.05439
   H       -4.04207        -6.64590        11.50838
   H       -3.70077        -5.68050        12.94858
   H       -2.78149        -7.15419        12.62907
   H       -0.10701        -7.04892        12.60077
   H        1.02177        -6.03095        11.69471
   H        1.02324        -9.04721        12.02982
   H        2.41135        -7.94475        11.95119
*
