# ORCA input file
# SCF done       -145.183996017992          0.000929427978
! CAM-B3LYP def2-SVP def2/J RIJCOSX Grid4 TightSCF
%maxcore 5000
%tddft
    Mode sTDDFT
    Ethresh 5.0
    maxcore 5000
end

%pal
  nprocs 6
  end
* xyz 0 1
   C       16.17800       -11.58319        -2.05600
   C       15.47419       -10.51580        -2.46312
   C       15.97367        -9.27935        -2.98558
   C       15.01246        -8.38088        -3.30745
   C       13.68837        -8.82902        -3.06842
   S       13.70494       -10.45388        -2.41697
   C       12.51388        -8.13411        -3.28242
   C       12.35666        -6.82382        -3.78000
   C       11.05589        -6.41542        -3.85117
   C       10.12102        -7.37717        -3.41607
   S       10.94919        -8.83683        -2.91894
   C        8.75057        -7.20866        -3.35915
   C        7.81013        -8.12996        -2.92583
   S        8.14248        -9.76764        -2.38786
   C        6.44710       -10.15514        -2.02931
   C        5.65654        -9.01552        -2.33763
   C        6.42703        -7.93773        -2.82240
   O        5.67034        -6.86576        -3.10360
   C        4.38773        -7.23855        -2.80437
   C        3.32308        -6.34612        -2.96231
   N        2.41361        -5.65102        -3.06494
   C        4.32613        -8.53354        -2.33970
   C        6.21531       -11.42132        -1.53503
   C        5.03356       -12.02677        -1.11050
   C        4.90181       -13.33106        -0.61273
   C        3.61876       -13.67341        -0.23974
   C        2.69381       -12.64758        -0.43121
   S        3.48170       -11.24250        -1.09643
   C        1.31839       -12.55728        -0.18572
   C        0.40183       -13.46448         0.34786
   C       -0.87811       -12.96191         0.43742
   C       -1.01304       -11.64352        -0.02143
   S        0.52828       -11.05220        -0.58165
   C       -2.15458       -10.84998        -0.04679
   C       -2.21646        -9.54565        -0.50129
   S       -0.86642        -8.63632        -1.16787
   C       -1.79425        -7.15274        -1.43703
   C       -3.12760        -7.38283        -1.01859
   C       -3.32670        -8.68586        -0.52035
   O       -4.59470        -8.88007        -0.13369
   C       -5.23846        -7.69832        -0.38000
   C       -6.60149        -7.57510        -0.07844
   N       -7.71696        -7.45053         0.16052
   C       -4.39291        -6.75589        -0.91876
   C       -1.08117        -6.09958        -1.97415
   C       -1.44064        -4.79519        -2.27687
   C       -0.54660        -3.85257        -2.82446
   C       -1.08879        -2.61511        -3.02922
   C       -2.44271        -2.51847        -2.65072
   S       -3.00439        -4.05709        -2.03179
   C       -3.27663        -1.41781        -2.71589
   C       -2.95342        -0.11923        -3.18494
   C       -3.97567         0.76757        -3.12199
   C       -5.19284         0.22847        -2.59360
   S       -4.94381        -1.47694        -2.18764
   C       -6.36291         0.85834        -2.40793
   H       17.25256       -11.58113        -2.09992
   H       15.69723       -12.46648        -1.67790
   H       17.03069        -9.11565        -3.09547
   H       15.20866        -7.40310        -3.71027
   H       13.19595        -6.21649        -4.06691
   H       10.74172        -5.44767        -4.20108
   H        8.35856        -6.25004        -3.67487
   H        3.42135        -9.02354        -2.05351
   H        7.09789       -12.04451        -1.44968
   H        5.74602       -13.99334        -0.53497
   H        3.34260       -14.63189         0.16205
   H        0.68414       -14.45483         0.65805
   H       -1.71565       -13.51410         0.82567
   H       -3.07459       -11.27765         0.32828
   H       -4.67311        -5.76179        -1.19425
   H       -0.04204        -6.32369        -2.19170
   H        0.47086        -4.12153        -3.04655
   H       -0.54941        -1.77955        -3.43677
   H       -1.97051         0.11422        -3.55386
   H       -3.91847         1.79594        -3.43118
   H       -6.47344         1.89672        -2.66550
   H       -7.21808         0.35325        -1.99856
*
