# ORCA input file
# SCF done       -193.598602158175          0.000277768701
! CAM-B3LYP def2-SVP def2/J RIJCOSX Grid4 TightSCF
%maxcore 5000
%tddft
    Mode sTDDFT
    Ethresh 5.0
    maxcore 5000
end

%pal
  nprocs 6
  end
* xyz 0 1
   C       -0.47587        -2.26706        -6.60536
   S       -1.45580        -2.54128        -5.22578
   C       -0.46749        -3.89464        -4.72955
   C        0.54561        -4.11105        -5.63876
   C        0.54565        -3.16005        -6.69762
   S        1.70040        -3.09172        -8.03665
   C        3.23574        -2.73255        -7.08878
   C        4.43455        -2.83303        -8.00892
   S        1.67774        -5.46275        -5.53963
   C        1.20415        -6.37372        -7.06532
   C        2.05819        -7.61792        -7.19077
   C       -0.83218        -4.58790        -3.53571
   C       -0.03517        -5.38974        -2.79981
   C       -0.50140        -6.08362        -1.64204
   C        0.27770        -6.88798        -0.89573
   C       -0.20399        -7.56460         0.29418
   C       -1.04662        -6.90996         1.14374
   S       -1.52012        -7.80826         2.52901
   C       -0.57643        -9.15265         1.96799
   C        0.08970        -8.90259         0.75890
   C        0.84131        -9.94925         0.17072
   C        1.47784        -9.70640        -1.17338
   C        2.90495        -9.16934        -1.03487
   C        0.97871       -11.17233         0.81579
   C        1.80569       -12.27437         0.20509
   C        0.92434       -13.32043        -0.48011
   C        0.30069       -11.41479         2.03704
   C        0.18008       -12.61181         2.84210
   C       -0.66848       -12.42945         3.89726
   S       -1.32883       -10.85343         4.02901
   C       -0.48766       -10.38944         2.58209
   C        0.82777       -13.89478         2.68082
   C        0.20526       -15.06245         2.93471
   C        0.87933       -16.31558         2.89168
   O        0.18097       -17.45345         3.15144
   C        2.20043       -16.65497         2.68494
   C        3.52076       -16.12904         2.34927
   O        3.88586       -15.00414         2.09817
   N        4.33578       -17.25251         2.35773
   C        3.68793       -18.45946         2.65333
   O        4.23363       -19.53257         2.70199
   C        2.30076       -18.06110         2.85894
   C        1.02808       -18.52568         3.14378
   C        0.54309       -19.82542         3.41316
   C       -0.78597       -20.13294         3.38919
   C       -1.37285       -21.37221         3.70600
   C       -0.84268       -22.39095         4.45891
   C       -1.51488       -23.60226         4.77566
   C       -0.86512       -24.39133         5.67106
   C        0.36215       -23.85099         6.12355
   S        0.68891       -22.33141         5.31020
   C        1.19511       -24.35190         7.09929
   C        1.01468       -25.53356         7.86593
   C        1.95125       -25.72734         8.82569
   C        2.94982       -24.71183         8.88219
   S        2.63133       -23.50847         7.62718
   C        3.96044       -24.51612         9.76637
   C        4.39571       -25.42152        10.80893
   C        4.83868       -24.97875        12.04831
   O        4.77556       -23.70486        12.51015
   C        3.75262       -22.81991        12.10261
   C        5.42292       -25.87909        13.01168
   O        5.79311       -25.26949        14.16117
   C        6.38498       -26.04960        15.17159
   C        5.56213       -27.21689        12.75364
   C        5.10710       -27.70112        11.51710
   C        4.51295       -26.81664        10.55125
   N        4.18306       -27.45489         9.43343
   S        4.56510       -29.01405         9.58796
   N        5.17341       -28.95571        11.08066
   H       -0.69953        -1.46466        -7.27895
   H        3.29553        -3.45727        -6.27817
   H        3.12813        -1.72740        -6.67952
   H        4.51461        -3.83707        -8.41951
   H        5.34299        -2.60820        -7.45404
   H        4.34430        -2.12954        -8.83383
   H        1.34709        -5.70416        -7.91207
   H        0.14727        -6.62208        -6.96394
   H        3.11161        -7.35216        -7.24432
   H        1.78789        -8.15905        -8.09502
   H        1.91033        -8.27158        -6.33378
   H       -1.84797        -4.41073        -3.20341
   H        0.99868        -5.53108        -3.07749
   H       -1.54789        -5.96695        -1.39092
   H        1.31680        -7.00315        -1.16383
   H       -1.39032        -5.89864         1.04566
   H        1.49071       -10.62509        -1.75937
   H        0.86635        -8.99132        -1.72480
   H        3.30851        -8.90975        -2.01145
   H        3.55527        -9.91227        -0.57903
   H        2.92552        -8.28540        -0.40126
   H        2.41095       -12.74902         0.97430
   H        2.50353       -11.87170        -0.52463
   H        0.21844       -13.75429         0.22335
   H        1.54064       -14.11969        -0.88482
   H        0.36074       -12.86830        -1.29416
   H       -0.90151       -13.15019         4.65667
   H        1.86889       -13.91842         2.39787
   H       -0.84537       -15.10067         3.18543
   H        5.32470       -17.20772         2.15849
   H        1.30012       -20.57516         3.58272
   H       -1.46695       -19.35664         3.06277
   H       -2.39208       -21.52292         3.37252
   H       -2.46889       -23.83841         4.33769
   H       -1.24095       -25.33111         6.03371
   H        0.18467       -26.19472         7.69147
   H        1.95629       -26.55385         9.51046
   H        4.52807       -23.60084         9.67218
   H        2.88931       -23.35068        11.69785
   H        4.12191       -22.10560        11.36291
   H        3.45420       -22.27083        12.99832
   H        5.70359       -26.82905        15.52736
   H        6.60167       -25.35909        15.98473
   H        7.31598       -26.51088        14.82808
   H        5.99815       -27.90814        13.45342
*
