# ORCA input file
# SCF done       -186.703556416106          0.000732345551
! CAM-B3LYP def2-SVP def2/J RIJCOSX Grid4 TightSCF
%maxcore 5000
%tddft
    Mode sTDDFT
    Ethresh 5.0
    maxcore 5000
end

%pal
  nprocs 6
  end
* xyz 0 1
   N       -4.76182       -11.83645         5.11315
   C       -4.38969       -12.85154         4.14200
   C       -4.23148       -14.21952         4.79582
   C       -3.27504       -15.12064         4.01048
   N       -3.17761       -16.38554         4.71370
   S       -1.96592       -16.14770         5.90597
   N       -0.98357       -15.15632         4.89424
   C       -1.83970       -14.48641         3.92467
   C       -1.87682       -12.98234         4.20697
   C       -3.07364       -12.38340         3.47074
   N       -3.07987       -10.93766         3.53647
   S       -4.47337       -10.33568         4.39689
   C       -2.27905       -10.17621         2.77397
   C       -2.28686        -8.82146         2.73398
   C       -1.40652        -8.10138         1.89248
   O       -0.55441        -8.77124         1.06299
   C       -1.22119        -6.74630         1.69803
   C       -1.66153        -5.42267         2.10967
   O       -2.48520        -5.06058         2.91355
   N       -0.88264        -4.55935         1.32934
   C        0.00963        -5.18055         0.46142
   O        0.76283        -4.60702        -0.28651
   C       -0.21349        -6.60520         0.70248
   C        0.17190        -7.87208         0.33132
   C        1.10666        -8.32560        -0.64239
   C        1.30490        -9.63292        -0.90458
   C        2.24016       -10.13719        -1.88315
   C        3.38221        -9.43527        -2.14787
   S        4.43334       -10.16596        -3.28576
   C        3.31291       -11.48095        -3.46285
   C        2.16858       -11.36155        -2.65920
   C        1.17617       -12.37290        -2.75162
   C       -0.12322       -12.18463        -2.01092
   C       -0.93525       -11.04057        -2.62287
   C        1.37571       -13.48500        -3.56621
   C        0.39624       -14.62915        -3.56893
   C       -0.62343       -14.51247        -4.70145
   C        2.51289       -13.56750        -4.41135
   C        2.87778       -14.50703        -5.46002
   C        4.06402       -14.15706        -6.05356
   S        4.80191       -12.74724        -5.43018
   C        3.46854       -12.54517        -4.33306
   C        2.14583       -15.64629        -5.93965
   C        2.20175       -16.10543        -7.21727
   C        1.47062       -17.19574        -7.73868
   C        0.58766       -18.05061        -7.12774
   C       -0.11413       -19.07966        -7.81014
   C       -0.94317       -19.82075        -7.02940
   C       -0.94893       -19.43344        -5.66795
   S        0.13091       -18.08077        -5.42811
   C       -1.65489       -20.02785        -4.64105
   C       -2.50430       -21.15295        -4.74971
   C       -3.00280       -21.58486        -3.56241
   C       -2.58159       -20.82370        -2.43911
   S       -1.55679       -19.50169        -2.96783
   C       -2.87460       -21.15330        -1.14223
   C       -2.49927       -20.48355         0.03917
   S       -2.57500       -21.34926         1.57090
   C       -2.00374       -20.02291         2.50384
   C       -1.76406       -18.94446         1.68863
   C       -2.04759       -19.20489         0.30727
   O       -1.87815       -18.08555        -0.43366
   C       -1.48077       -17.12842         0.44455
   N       -1.30302       -15.81803        -0.01442
   O       -0.95840       -14.99012         0.82608
   O       -1.51803       -15.55923        -1.18279
   C       -1.37784       -17.58201         1.73701
   H       -4.24846       -11.94146         5.98514
   H       -5.18590       -12.86823         3.38895
   H       -5.19810       -14.71482         4.87866
   H       -3.83397       -14.11275         5.80691
   H       -3.67373       -15.29668         3.00706
   H       -2.95262       -17.16277         4.09907
   H       -0.23980       -15.69176         4.46053
   H       -1.44021       -14.62973         2.91591
   H       -0.94791       -12.52954         3.86041
   H       -1.95124       -12.80521         5.28049
   H       -3.04273       -12.70580         2.42249
   H       -1.57469       -10.72615         2.16382
   H       -2.96957        -8.24274         3.33526
   H       -0.96493        -3.55509         1.39343
   H        1.61193        -7.54260        -1.18709
   H        0.73861       -10.34573        -0.32790
   H        3.68644        -8.51715        -1.68497
   H       -0.73615       -13.07937        -2.05446
   H        0.07125       -11.99382        -0.95626
   H       -1.86548       -10.90880        -2.07484
   H       -1.17479       -11.26905        -3.65911
   H       -0.38849       -10.10185        -2.60047
   H       -0.14371       -14.69033        -2.62748
   H        0.94656       -15.56536        -3.64201
   H       -1.23512       -13.62449        -4.56402
   H       -1.27508       -15.38240        -4.70132
   H       -0.13063       -14.44234        -5.66929
   H        4.57402       -14.69956        -6.82534
   H        1.49954       -16.16103        -5.25400
   H        2.81529       -15.57940        -7.93667
   H        1.60666       -17.38174        -8.79764
   H        0.01978       -19.23517        -8.86644
   H       -1.54415       -20.63443        -7.39261
   H       -2.71417       -21.61888        -5.69538
   H       -3.65358       -22.43318        -3.44567
   H       -3.41837       -22.07714        -0.99476
   H       -1.89067       -20.11600         3.56345
   H       -1.06278       -17.00549         2.58050
*
