# ORCA input file
# SCF done       -127.363536642455          0.000447239856
! CAM-B3LYP def2-SVP def2/J RIJCOSX Grid4 TightSCF
%maxcore 5000
%tddft
    Mode sTDDFT
    Ethresh 5.0
    maxcore 5000
end

%pal
  nprocs 6
  end
* xyz 0 1
   C       -1.67446        -2.29467        -0.12277
   N       -0.92206        -3.37423        -0.08583
   C        0.37204        -3.16091        -0.34466
   N        0.91138        -1.96274        -0.57400
   C        0.05379        -0.96353        -0.57248
   N       -1.25004        -1.06667        -0.37751
   N        1.16284        -4.26558        -0.36484
   C        2.51054        -4.27381        -0.64346
   S        3.56425        -5.26330         0.31507
   C        4.92816        -4.60563        -0.52816
   N        6.20474        -5.08095        -0.19072
   O        7.15587        -4.60848        -0.78182
   O        6.26146        -5.93610         0.67407
   C        4.58309        -3.67924        -1.47364
   C        3.18792        -3.49729        -1.57894
   C        2.57534        -2.64928        -2.57222
   C        1.42204        -2.94815        -3.21427
   C        0.73411        -2.13021        -4.14483
   C        0.86505        -0.78337        -4.34274
   C        0.09069        -0.01206        -5.25503
   C        0.32730         1.32374        -5.21097
   C        1.31086         1.69967        -4.26342
   S        1.93478         0.28154        -3.44540
   C        1.75766         2.96708        -3.96369
   C        1.36950         4.18953        -4.56401
   C        1.96121         5.28918        -4.03179
   C        2.86978         5.00449        -2.97247
   S        2.94471         3.26238        -2.70949
   C        3.65756         5.82723        -2.22686
   N        3.60177         7.20125        -2.18072
   C        2.51254         8.00040        -2.24843
   S        0.89849         7.37621        -2.12684
   C        0.28373         9.00643        -2.14380
   N       -1.10145         9.15742        -2.09828
   O       -1.55655        10.28718        -2.11948
   O       -1.75921         8.12844        -2.04441
   C        1.26088         9.95933        -2.22674
   C        2.55483         9.40885        -2.29037
   C        3.77245        10.15450        -2.40011
   C        3.88590        11.49530        -2.34446
   C        5.16420        12.14734        -2.46490
   N        6.26855        11.40215        -2.62616
   C        7.39268        12.07656        -2.72616
   N        7.51409        13.39452        -2.67779
   C        6.36918        14.04121        -2.51452
   N        5.18314        13.48407        -2.40446
   H       -2.73078        -2.42588         0.07332
   H        0.45798         0.02504        -0.74721
   H        0.73722        -5.10183         0.01419
   H        5.30745        -3.17858        -2.09041
   H        3.14156        -1.77136        -2.84312
   H        0.96510        -3.91275        -3.02711
   H       -0.03682        -2.61536        -4.73026
   H       -0.62532        -0.48126        -5.90651
   H       -0.18278         2.04945        -5.81808
   H        0.67021         4.22040        -5.37981
   H        1.81942         6.28481        -4.40954
   H        4.42388         5.38904        -1.60295
   H        4.46479         7.67025        -1.93227
   H        1.03770        11.00950        -2.25387
   H        4.69035         9.60065        -2.55080
   H        3.04421        12.15330        -2.20225
   H        8.30233        11.50249        -2.85782
   H        6.41447        15.12254        -2.46819
*
