# ORCA input file
# SCF done       -175.795790837200          0.000888374139
! CAM-B3LYP def2-SVP def2/J RIJCOSX Grid4 TightSCF
%maxcore 5000
%tddft
    Mode sTDDFT
    Ethresh 5.0
    maxcore 5000
end

%pal
  nprocs 6
  end
* xyz 0 1
   C      -10.19238         6.34568        -0.00481
   C      -10.00367         7.31144         0.95509
   C      -10.86439         8.40880         1.15068
   N      -11.52255         9.32882         1.35091
   C       -8.95823         7.31836         1.90011
   N       -8.15188         7.38711         2.71605
   C      -11.34130         6.26194        -0.90423
   C      -11.23879         5.06084        -1.64643
   C      -12.17100         4.68655        -2.58061
   C      -13.26145         5.53938        -2.79188
   C      -13.35403         6.73661        -2.04741
   C      -12.40805         7.11598        -1.10110
   S      -14.77520         7.64506        -2.47087
   C      -15.21879         6.41696        -3.62542
   C      -14.35009         5.38104        -3.69327
  Br      -16.78777         6.61819        -4.63550
   C       -9.99559         4.36091        -1.26016
   O       -9.56606         3.32990        -1.75779
   C       -9.36118         5.19083        -0.24032
   C       -8.08239         5.01020         0.26639
   C       -7.28241         3.87379         0.30230
   C       -7.61038         2.52700         0.26843
   C       -6.64709         1.49413         0.43093
   C       -7.17455         0.24661         0.54112
   C       -8.58693         0.23204         0.48632
   S       -9.20604         1.85213         0.22657
   C       -9.41599        -0.86203         0.59784
   C      -10.83260        -0.88418         0.53752
   C      -11.37329        -2.11471         0.70795
   C      -10.42084        -3.15534         0.93311
   S       -8.79419        -2.47207         0.87167
   C      -10.70539        -4.47425         1.07577
   C       -9.76272        -5.54596         1.31618
   C       -8.79155        -5.47295         2.31712
   C       -7.85837        -6.49487         2.47816
   S       -6.81837        -6.30302         3.87614
   C       -7.96493        -5.05136         4.56405
   C       -8.65688        -4.40778         3.36949
   C       -7.83822        -7.56527         1.60129
   C       -8.81501        -7.66064         0.61134
   C       -8.67482        -8.87752        -0.25882
   C       -7.75559        -9.85936         0.46250
   S       -6.71218        -8.89778         1.62651
   C       -9.80684        -6.70025         0.48968
   C      -10.83926        -6.91478        -0.52729
   C      -12.14596        -7.02661        -0.24756
   C      -13.17182        -7.33581        -1.19427
   S      -14.79068        -7.63233        -0.62885
   C      -15.35636        -7.97925        -2.23843
   C      -14.32218        -7.84660        -3.14503
   C      -13.10673        -7.48992        -2.56261
   C      -16.71059        -8.36094        -2.43611
   C      -17.26455        -8.70465        -3.62468
   C      -18.61348        -9.11899        -3.76059
   C      -19.16673        -9.49116        -4.94091
   C      -20.50391        -9.93398        -5.09530
   O      -21.35504       -10.02113        -4.03949
   C      -22.55145       -10.48097        -4.48836
   C      -22.47048       -10.69378        -5.85738
   C      -21.16271       -10.34521        -6.24876
   O      -20.64290       -10.39857        -7.49537
   O      -23.41786       -11.14932        -6.72510
   C      -23.64371       -10.67682        -3.59531
   C      -23.59308       -10.44366        -2.26775
   C      -24.70297       -10.64727        -1.38351
   C      -24.65283       -10.42059        -0.07053
   H      -12.06531         3.76622        -3.13341
   H      -12.52061         8.04212        -0.56266
   H      -14.46878         4.54005        -4.35194
   H       -7.60823         5.89752         0.67003
   H       -6.23202         4.05880         0.49858
   H       -5.59488         1.71543         0.46266
   H       -6.60690        -0.65996         0.65969
   H      -11.38804         0.02051         0.36346
   H      -12.42738        -2.32864         0.69126
   H      -11.73563        -4.75650         0.90946
   H       -7.39131        -4.34436         5.15776
   H       -8.67057        -5.57877         5.20790
   H       -8.02878        -3.59853         2.98655
   H       -9.62265        -3.98609         3.65074
   H       -8.23646        -8.57660        -1.21593
   H       -9.64318        -9.33745        -0.46117
   H       -7.09715       -10.40305        -0.21057
   H       -8.32180       -10.57192         1.06299
   H      -10.48554        -7.07624        -1.53675
   H      -12.47898        -6.93121         0.77867
   H      -14.44688        -8.00830        -4.20034
   H      -12.20182        -7.34559        -3.12552
   H      -17.32674        -8.38983        -1.54649
   H      -16.66529        -8.68290        -4.52441
   H      -19.22275        -9.14790        -2.86764
   H      -18.58981        -9.47341        -5.85432
   H      -21.33186       -10.72236        -8.09000
   H      -24.23281       -11.33034        -6.24555
   H      -24.56199       -11.03882        -4.04210
   H      -22.67049       -10.08409        -1.83525
   H      -25.61992       -11.00572        -1.83490
   H      -23.75343       -10.06421         0.40345
   H      -25.50259       -10.58269         0.56916
*
