# ORCA input file
# SCF done       -171.653504878754          0.000945670623
! CAM-B3LYP def2-SVP def2/J RIJCOSX Grid4 TightSCF
%maxcore 5000
%tddft
    Mode sTDDFT
    Ethresh 5.0
    maxcore 5000
end

%pal
  nprocs 6
  end
* xyz 0 1
   C       -6.29594        -1.23389         1.99350
   C       -5.65029        -2.37305         2.44105
   C       -6.31148        -3.41913         3.08942
   N       -6.81462        -4.27466         3.67639
   C       -4.25580        -2.55250         2.42346
   N       -3.12362        -2.74679         2.47069
   C       -7.72282        -0.98053         2.14141
   C       -7.97857         0.36876         1.80023
   C       -9.22420         0.93581         1.89098
   C      -10.27442         0.13449         2.35756
   C      -10.01244        -1.21424         2.68584
   C       -8.75379        -1.79243         2.57469
   S      -11.44307        -2.02293         3.25710
   C      -12.36114        -0.55351         3.04855
   C      -11.63516         0.48618         2.57425
  Br      -14.18799        -0.53418         3.48284
   C       -6.70974         1.01618         1.40608
   O       -6.58074         2.16204         1.02808
   C       -5.67207        -0.03134         1.52055
   C       -4.34726         0.15686         1.19271
   C       -3.69109         1.40880         1.13251
   S       -2.42204         1.68695        -0.03312
   C       -2.26935         3.31697         0.47639
   C       -3.10058         3.64540         1.50716
   C       -3.15495         4.98355         2.16259
   C       -3.89923         2.54841         1.91447
   C       -4.80898         2.51665         3.03559
   C       -4.86435         1.44171         3.84796
   C       -5.98219         1.04992         4.63831
   C       -6.03405        -0.17473         5.21003
   C       -7.23262        -0.82220         5.64293
   C       -7.28700        -2.02948         6.23227
   C       -6.08233        -2.78555         6.70190
   C       -8.60606        -2.73468         6.42940
   N       -8.51102        -4.11039         6.01102
   C       -8.67394        -5.15377         6.82863
   C       -8.38640        -6.44880         6.49658
   C       -8.61514        -7.51498         7.37149
   C       -8.33004        -8.83496         7.11153
   C       -8.53833        -9.93292         7.97388
   C       -8.15693       -11.13535         7.45512
   C       -7.62588       -11.05189         6.15039
   S       -7.62400        -9.39592         5.59921
   C       -7.15659       -12.08855         5.36013
   C       -7.10056       -13.45948         5.68060
   C       -6.58672       -14.23715         4.68475
   C       -6.21106       -13.51942         3.52467
   S       -6.52978       -11.81499         3.74517
   C       -5.67571       -14.05593         2.37577
   C       -5.32772       -13.27866         1.25701
   O       -5.51786       -11.94999         1.32769
   C       -5.12202       -11.38368         0.16578
   C       -4.65835       -12.37302        -0.70052
   C       -4.78834       -13.60296        -0.00288
   C       -4.45745       -14.96987        -0.46975
   F       -4.73335       -15.92891         0.42428
   F       -5.12827       -15.32962        -1.58890
   F       -3.14816       -15.13564        -0.77017
   O       -4.22142       -12.02660        -1.92575
   C       -3.63475       -12.97779        -2.79015
   C       -5.20709        -9.97043        -0.03694
   C       -5.66859        -9.11290         0.87470
   H       -9.38502         1.96901         1.62576
   H       -8.61745        -2.83188         2.81704
   H      -12.04143         1.46306         2.38545
   H       -3.74934        -0.70731         0.92764
   H       -1.56150         3.95425        -0.01741
   H       -2.43648         5.66244         1.71140
   H       -2.93711         4.89104         3.22578
   H       -4.15341         5.40636         2.05936
   H       -5.50969         3.33454         3.13341
   H       -4.06613         0.71053         3.77794
   H       -6.85714         1.68690         4.62893
   H       -5.12594        -0.76273         5.23424
   H       -8.15939        -0.31621         5.39852
   H       -5.30942        -2.11005         7.05748
   H       -5.66294        -3.38888         5.89568
   H       -6.35277        -3.46161         7.51044
   H       -9.38691        -2.22818         5.84864
   H       -8.89979        -2.70976         7.48516
   H       -8.02677        -4.27926         5.12751
   H       -9.09289        -4.93037         7.80350
   H       -7.95902        -6.66162         5.52703
   H       -9.04807        -7.29428         8.33978
   H       -8.96419        -9.80283         8.95365
   H       -8.24425       -12.07276         7.97395
   H       -7.43679       -13.84014         6.62850
   H       -6.46545       -15.30412         4.74338
   H       -5.52211       -15.12025         2.34187
   H       -3.33584       -12.41081        -3.67058
   H       -4.34706       -13.74919        -3.08917
   H       -2.75076       -13.43782        -2.34353
   H       -4.85924        -9.64279        -1.00564
   H       -6.01262        -9.45270         1.83654
   H       -5.71050        -8.05626         0.68137
*
