# ORCA input file
# SCF done       -190.656895077210          0.000955050535
! CAM-B3LYP def2-SVP def2/J RIJCOSX Grid4 TightSCF
%maxcore 5000
%tddft
    Mode sTDDFT
    Ethresh 5.0
    maxcore 5000
end

%pal
  nprocs 6
  end
* xyz 0 1
   C      -10.70861        -0.45386        -1.13387
   C      -10.66699        -1.73056        -0.62598
   C      -11.21338        -2.85616        -1.27480
   N      -11.64070        -3.81173        -1.74740
   C      -10.05505        -2.10412         0.58649
   N       -9.56513        -2.48389         1.55514
   C      -11.29951        -0.07404        -2.41565
   C      -11.08008         1.31115        -2.61192
   C      -11.56095         2.00006        -3.69616
   C      -12.27521         1.27253        -4.65178
   C      -12.45119        -0.11951        -4.48111
   C      -11.98207        -0.80857        -3.36727
   S      -13.32057        -0.81217        -5.81822
   C      -13.44002         0.76133        -6.56710
   C      -12.85986         1.75407        -5.85405
  Br      -14.30512         0.96414        -8.22097
   C      -10.27670         1.83532        -1.49811
   O       -9.81159         2.96114        -1.43301
   C      -10.14464         0.73853        -0.53525
   C       -9.67468         0.84554         0.75713
   C       -9.08830         1.93423         1.40660
   S       -8.65826         3.43559         0.63366
   C       -8.01425         4.07625         2.11141
   C       -8.15904         3.15790         3.17057
   C       -8.73391         1.96349         2.77406
   C       -8.98278         0.83217         3.72220
   C       -8.20021         1.02087         5.01929
   C       -8.38350         2.44395         5.55207
   O       -7.88282         2.59919         6.85790
   C       -7.73227         3.43429         4.57710
   C       -7.46106         5.36222         2.16469
   C       -7.33993         6.22102         1.09219
   C       -6.79378         7.53027         1.10214
   C       -6.79347         8.15272        -0.11197
   C       -7.33530         7.36122        -1.14728
   S       -7.85827         5.81298        -0.52402
   C       -7.47639         7.60936        -2.50103
   C       -7.10462         8.72907        -3.27634
   C       -7.35329         8.58075        -4.60733
   C       -7.91968         7.32648        -4.96625
   S       -8.18001         6.37342        -3.51844
   C       -8.29845         6.95625        -6.23166
   C       -8.83342         5.72639        -6.68203
   S      -10.02066         5.83154        -7.96574
   C      -10.28669         4.10765        -7.94240
   C       -9.42716         3.49763        -7.02859
   C       -8.61519         4.39654        -6.32746
   C       -7.53142         3.86264        -5.44644
   C       -8.00481         2.57795        -4.77433
   C       -8.34347         1.53111        -5.83702
   O       -8.83024         0.33202        -5.26545
   C       -9.44624         2.02785        -6.77691
   C      -11.16314         3.45040        -8.82702
   C      -12.19359         3.95363        -9.56850
   C      -12.94813         5.17886        -9.47308
   C      -13.22604         5.86698        -8.31655
   C      -14.02538         7.02315        -8.25629
   N      -14.65267         7.98011        -8.16039
   C      -12.82537         5.39633        -7.05367
   N      -12.57096         4.97680        -6.01422
   C      -13.60891         5.38483       -10.75644
   C      -13.46270         4.20776       -11.53340
   C      -12.63295         3.23401       -10.79197
   O      -12.31963         2.11563       -11.12934
   C      -14.02233         4.07721       -12.78042
   C      -14.74766         5.16159       -13.28748
   C      -14.87437         6.33606       -12.50842
   C      -14.31792         6.46582       -11.24161
   S      -15.79991         7.55377       -13.33267
   C      -16.00547         6.48195       -14.69283
   C      -15.41154         5.27492       -14.54010
  Br      -16.98206         7.06020       -16.18586
   H      -11.40309         3.06141        -3.81162
   H      -12.15670        -1.86714        -3.27112
   H      -12.84396         2.79013        -6.14316
   H       -9.79418        -0.02916         1.38265
   H       -8.70644        -0.11994         3.26398
   H      -10.05375         0.78731         3.94466
   H       -7.13664         0.84115         4.83857
   H       -8.54393         0.30494         5.76702
   H       -9.45271         2.66684         5.63690
   H       -6.95193         2.34684         6.86688
   H       -6.64165         3.34395         4.65252
   H       -7.99596         4.45439         4.86394
   H       -7.09423         5.71494         3.11939
   H       -6.41610         7.97134         2.00805
   H       -6.41818         9.14559        -0.28505
   H       -6.66347         9.60430        -2.83404
   H       -7.13308         9.32458        -5.35261
   H       -8.28789         7.74805        -6.97239
   H       -7.21939         4.58403        -4.69729
   H       -6.65946         3.64458        -6.07438
   H       -8.88612         2.78128        -4.16469
   H       -7.22144         2.19334        -4.11681
   H       -7.43193         1.31806        -6.42154
   H       -8.16574        -0.02149        -4.66470
   H      -10.39894         1.76471        -6.30986
   H       -9.39448         1.47730        -7.71934
   H      -10.93532         2.40675        -9.02455
   H      -13.90739         3.16728       -13.34804
   H      -14.43561         7.37942       -10.68214
   H      -15.43863         4.49486       -15.27890
*
