# ORCA input file
# SCF done       -183.144210443257          0.000831529896
! CAM-B3LYP def2-SVP def2/J RIJCOSX Grid4 TightSCF
%maxcore 5000
%tddft
    Mode sTDDFT
    Ethresh 5.0
    maxcore 5000
end

%pal
  nprocs 6
  end
* xyz 0 1
   C       -0.14479         2.95262        -4.26984
   C        0.14542         2.22531        -3.18142
   C       -0.07106         2.57924        -1.80790
   C        0.33109         1.64181        -0.92122
   C        0.89451         0.47676        -1.51225
   S        0.88887         0.61963        -3.25856
   C        1.39560        -0.63039        -0.86832
   C        1.47306        -0.85556         0.53299
   C        2.03346        -2.04279         0.86594
   C        2.43196        -2.84441        -0.24554
   S        2.04672        -1.99797        -1.74068
   C        3.07015        -4.04216        -0.14541
   C        3.46606        -4.92700        -1.20054
   C        4.47897        -5.89194        -0.93567
   O        5.01063        -5.85983         0.29753
   C        5.88367        -6.88741         0.72773
   C        6.12596        -6.67487         2.21372
   C        4.88439        -6.76743        -1.93109
   C        4.28542        -6.76816        -3.18671
   O        4.66087        -7.55392        -4.20928
   C        5.41458        -8.73237        -3.99132
   C        4.56303        -9.83403        -3.37171
   C        3.20942        -5.87572        -3.42960
   C        2.85245        -4.95658        -2.44558
   C        2.36070        -6.04089        -4.57593
   O        2.65106        -6.97217        -5.51051
   C        1.08658        -5.55551        -4.83192
   C        0.04303        -4.63270        -4.38591
   O        0.01470        -3.82069        -3.49462
   N       -1.01815        -4.88106        -5.25598
   C       -0.79033        -5.87159        -6.20756
   O       -1.58792        -6.23774        -7.03270
   C        0.58001        -6.30182        -5.92827
   C        1.57000        -7.18297        -6.31093
   C        1.56673        -8.32302        -7.15709
   C        2.66715        -8.89637        -7.71293
   C        2.69175       -10.24867        -8.14252
   C        2.10861       -11.23621        -7.38858
   C        2.11731       -12.63796        -7.59208
   C        1.72380       -13.36506        -6.50440
   C        1.39774       -12.57671        -5.38156
   S        1.47705       -10.88257        -5.77982
   C        1.14294       -12.96827        -4.07218
   C        0.92704       -14.24921        -3.54131
   C        0.79616       -14.26153        -2.17626
   C        0.92512       -12.99671        -1.57302
   S        1.16462       -11.77146        -2.79385
   C        0.92156       -12.70798        -0.21301
   C        1.18207       -11.44515         0.28640
   C        1.21069       -11.10333         1.63344
   C        1.54480        -9.82452         2.18166
   C        2.04225        -8.72405         1.50826
   C        2.35146        -7.49260         2.10942
   N        2.64587        -6.46374         2.53247
   C        2.38099        -8.68394         0.14751
   N        2.73648        -8.55690        -0.94020
   C        1.33733        -9.88711         3.62822
   C        0.93962       -11.20214         3.96803
   C        0.85546       -12.01488         2.73131
   O        0.54955       -13.19132         2.67044
   C        0.68850       -11.58948         5.25934
   C        0.83360       -10.62928         6.26895
   C        1.22329        -9.31769         5.91916
   C        1.47975        -8.92643         4.60922
   S        1.34031        -8.29117         7.31807
   C        0.87270        -9.62452         8.33922
   C        0.63910       -10.77751         7.67005
  Br        0.73934        -9.36745        10.19374
   H       -0.59480         3.92530        -4.17679
   H        0.05974         2.59237        -5.26109
   H       -0.51950         3.52178        -1.54806
   H        0.24382         1.74119         0.14628
   H        1.11809        -0.13098         1.24381
   H        2.17825        -2.39107         1.87332
   H        3.33001        -4.37188         0.85225
   H        6.83129        -6.83625         0.17346
   H        5.42087        -7.86755         0.54977
   H        6.62676        -5.72462         2.37608
   H        6.74139        -7.47725         2.61024
   H        5.17301        -6.65628         2.73622
   H        5.66946        -7.47373        -1.72047
   H        6.30446        -8.52923        -3.38376
   H        5.74552        -9.02456        -4.99208
   H        4.14061        -9.50318        -2.42587
   H        5.16586       -10.72315        -3.20725
   H        3.73980       -10.07924        -4.03822
   H        2.01790        -4.30276        -2.63770
   H       -1.89322        -4.38105        -5.19153
   H        0.59166        -8.76426        -7.31600
   H        3.58093        -8.32180        -7.79524
   H        3.29833       -10.53672        -8.98971
   H        2.44366       -13.06778        -8.52270
   H        1.71609       -14.43991        -6.46620
   H        0.86772       -15.12451        -4.16344
   H        0.62947       -15.14800        -1.59053
   H        0.73679       -13.52013         0.47472
   H        1.38402       -10.66339        -0.43699
   H        0.39108       -12.60081         5.48819
   H        1.77181        -7.91222         4.39451
   H        0.34233       -11.69612         8.14231
*
