# ORCA input file
# SCF done       -210.162670287130          0.000697959897
! CAM-B3LYP def2-SVP def2/J RIJCOSX Grid4 TightSCF
%maxcore 5000
%tddft
    Mode sTDDFT
    Ethresh 5.0
    maxcore 5000
end

%pal
  nprocs 6
  end
* xyz 0 1
   N       -0.41347        -0.13802         1.41620
   C       -0.15729         0.90673         0.69095
   C       -0.98741         2.12167         0.67365
   C        1.05777         0.72022        -0.08482
   C        1.54870        -0.53532         0.24114
   C        0.57254        -1.11779         1.22734
   O        0.61340        -2.19768         1.75122
   C        2.77089        -0.75747        -0.40876
   C        3.64128        -1.94100        -0.33170
   N        3.05973         0.34513        -1.12274
   C        1.95917         1.34567        -1.01475
   O        1.91882         2.31533        -1.71416
   C        4.18803         0.64174        -1.85258
   C        4.91825         1.81463        -1.70520
   N        4.74191         2.78411        -0.70480
   O        5.44732         3.77246        -0.74240
   O        3.92309         2.55204         0.17628
   C        5.99560         1.80464        -2.64918
   C        5.95203         0.63097        -3.33837
   C        4.82600        -0.14144        -2.89299
   C        4.32945        -1.30830        -3.47105
   C        2.96722        -1.69676        -3.51999
   C        2.82998        -2.74791        -4.39668
   C        4.10935        -3.10876        -4.88068
   N        4.32927        -4.23190        -5.69961
   O        5.46628        -4.65922        -5.81355
   O        3.35345        -4.72446        -6.23707
   C        5.07843        -2.25815        -4.31454
   C        6.46076        -2.38419        -4.46564
   C        7.40970        -1.95486        -3.56197
   C        8.77991        -2.08022        -3.80204
   N        9.76512        -1.84716        -2.86611
   C        9.57121        -1.37503        -1.51414
   C        9.33720         0.13243        -1.46878
   C       11.04084        -2.09042        -3.37230
   O       12.06637        -1.98183        -2.72287
   C       10.81723        -2.48942        -4.75044
   C        9.43857        -2.46960        -4.98755
   C        9.21476        -2.82708        -6.37915
   O        8.21242        -2.89372        -7.04989
   N       10.50859        -3.08767        -6.87969
   C       10.71331        -3.44621        -8.26349
   C       11.13317        -2.24242        -9.10263
   C       11.47614        -2.87755        -5.93960
   C       12.85819        -3.01957        -6.15343
   C       13.74210        -2.72412        -5.15547
   C       15.14108        -2.79224        -5.23600
   S       15.98529        -3.49079        -6.59048
   C       17.51677        -3.25105        -5.81362
   C       17.37630        -2.63385        -4.57967
   C       16.03871        -2.36010        -4.26174
   C       15.62891        -1.64964        -3.01453
   N       14.82281        -0.40827        -3.31063
   O       14.47006         0.21714        -2.34856
   O       14.61756        -0.11730        -4.45973
   C       16.84212        -1.19560        -2.19153
   C       17.91549        -2.27549        -2.18539
   C       18.48724        -2.41716        -3.60079
   N       19.40019        -3.59344        -3.58989
   O       18.90896        -4.67823        -3.79646
   O       20.55702        -3.38476        -3.33748
   N       18.69402        -3.58951        -6.42718
   C       18.96117        -4.73369        -7.14073
   C       18.02406        -5.86495        -7.25751
   C       20.24941        -4.62352        -7.62434
   C       20.80730        -3.39494        -7.23458
   C       19.84460        -2.67047        -6.47726
   O       19.80034        -1.57413        -5.96932
   C       22.16165        -3.38529        -7.72931
   C       23.13546        -2.29687        -7.52943
   N       22.43083        -4.48005        -8.37991
   C       21.32137        -5.33701        -8.38811
   O       21.26255        -6.41843        -8.91043
   H       -1.80969         2.02584         1.37545
   H       -1.37193         2.28928        -0.33216
   H       -0.37084         2.98324         0.92859
   H        3.38850        -2.52115         0.55217
   H        4.69028        -1.64612        -0.31039
   H        3.49159        -2.57245        -1.21254
   H        6.69775         2.60840        -2.75845
   H        6.58766         0.35278        -4.15582
   H        2.15632        -1.17582        -3.04810
   H        1.91893        -3.24249        -4.67665
   H        6.79264        -2.94493        -5.33288
   H        7.09231        -1.55990        -2.60762
   H       10.48924        -1.61817        -0.97262
   H        8.73907        -1.91757        -1.05762
   H       10.19459         0.65295        -1.88759
   H        9.21123         0.45225        -0.43845
   H        8.44986         0.41178        -2.03253
   H        9.75470        -3.82899        -8.62365
   H       11.45804        -4.24400        -8.32298
   H       10.35873        -1.48025        -9.07282
   H       11.27706        -2.54859       -10.13465
   H       12.05976        -1.80964        -8.73201
   H       13.21625        -3.33734        -7.12198
   H       13.33872        -2.40144        -4.20577
   H       14.96499        -2.27688        -2.40713
   H       16.52472        -0.96419        -1.17530
   H       17.25938        -0.28587        -2.63062
   H       17.48440        -3.22873        -1.86905
   H       18.71522        -2.00685        -1.49470
   H       19.10021        -1.54669        -3.86110
   H       17.60187        -6.10714        -6.28185
   H       18.56030        -6.72407        -7.65215
   H       17.20273        -5.62756        -7.93523
   H       24.05918        -2.51974        -8.05418
   H       23.33355        -2.18340        -6.46350
   H       22.71629        -1.35565        -7.88282
*
