# ORCA input file
# SCF done       -192.145387500361          0.000612144586
! CAM-B3LYP def2-SVP def2/J RIJCOSX Grid4 TightSCF
%maxcore 5000
%tddft
    Mode sTDDFT
    Ethresh 5.0
    maxcore 5000
end

%pal
  nprocs 6
  end
* xyz 0 1
   C        5.12031         1.31363        -1.04170
   C        4.98871         2.75608        -1.33876
   N        5.86565         0.52429        -1.77276
   N        6.08732        -0.68721        -1.64303
   C        5.99822        -1.34124        -0.32256
   C        4.90717        -0.64653         0.42472
   C        4.42422         0.64779         0.01848
   N        3.49312         1.00166         0.86586
   O        3.39300         0.00307         1.75513
   N        4.26545        -0.99672         1.49378
   C        7.35018        -1.11660         0.38103
   C        5.67430        -2.78004        -0.58182
   C        4.89506        -3.22619        -1.63677
   N        4.03531        -2.45763        -2.42657
   O        3.76962        -1.32577        -2.03152
   O        3.57396        -2.95259        -3.43718
   C        5.02765        -4.65431        -1.76886
   C        5.89678        -5.08332        -0.82421
   C        6.29141        -3.95254        -0.00879
   C        6.87846        -4.09373         1.24456
   C        6.50700        -3.41003         2.43061
   C        7.09526        -4.03757         3.50023
   C        7.92056        -5.09459         3.02444
   N        8.75963        -5.85318         3.85578
   O        9.57725        -6.59673         3.33800
   O        8.62743        -5.71288         5.06082
   C        7.82055        -5.16100         1.62839
   C        8.53877        -5.97170         0.74199
   C        8.77214        -5.63795        -0.57170
   C        9.38109        -6.49939        -1.49369
   N        9.77840        -6.12457        -2.75856
   C        9.62308        -4.81642        -3.34883
   C        8.20624        -4.58897        -3.87014
   C       10.36112        -7.17971        -3.46661
   O       10.77044        -7.07719        -4.60811
   C       10.31354        -8.30128        -2.54626
   C        9.69716        -7.85988        -1.36111
   C        9.62350        -8.98143        -0.44471
   O        9.13502        -9.10455         0.65422
   N       10.27070       -10.03209        -1.13676
   C       10.36672       -11.35510        -0.56615
   C        9.40158       -12.33390        -1.22909
   C       10.67869        -9.64819        -2.37770
   C       11.42046       -10.47850        -3.26252
   C       11.69958       -10.07076        -4.51553
   C       12.54857       -10.76380        -5.46099
   C       12.46565       -12.13770        -5.69863
   C       11.53697       -13.16138        -5.16670
   O       10.65317       -13.05195        -4.36097
   O       11.83420       -14.34152        -5.75506
   C       12.90569       -14.21408        -6.67403
   C       13.28735       -12.77006        -6.62738
   C       14.23970       -12.06477        -7.33729
   C       14.34788       -10.70535        -7.09925
   C       13.52607       -10.04206        -6.18517
   C       13.68623        -8.62007        -5.91662
   C       14.81568        -7.92605        -6.01068
   C       14.86240        -6.47233        -5.61749
   C       13.94929        -5.63001        -6.53557
   N       16.24759        -6.02446        -5.71621
   N       16.65323        -5.04772        -5.06012
   C       16.16302        -4.52343        -3.96249
   C       15.09368        -5.27317        -3.37723
   C       14.42460        -6.24784        -4.20306
   N       13.45965        -6.76249        -3.50976
   O       13.49944        -6.16628        -2.29513
   N       14.49364        -5.25866        -2.21367
   C       16.75249        -3.30815        -3.35301
   H        5.78138         3.07795        -2.00847
   H        5.01340         3.33337        -0.41601
   H        4.02306         2.94194        -1.81073
   H        8.12905        -1.64236        -0.16498
   H        7.32654        -1.46694         1.40661
   H        7.57943        -0.05125         0.37635
   H        4.48682        -5.23622        -2.48954
   H        6.15615        -6.09994        -0.60287
   H        5.76049        -2.63837         2.47623
   H        6.97468        -3.79629         4.53971
   H        8.97179        -6.87960         1.14752
   H        8.50772        -4.64639        -0.91125
   H       10.33074        -4.77316        -4.18146
   H        9.89832        -4.05428        -2.61466
   H        7.97657        -5.31303        -4.64762
   H        8.12319        -3.59071        -4.29040
   H        7.47176        -4.69362        -3.07494
   H       10.11667       -11.24087         0.49249
   H       11.39661       -11.71352        -0.64827
   H        8.38238       -11.96364        -1.14905
   H        9.45949       -13.29449        -0.72521
   H        9.64233       -12.47848        -2.27943
   H       11.78828       -11.42049        -2.88720
   H       11.30239        -9.11873        -4.83988
   H       12.55932       -14.52835        -7.66481
   H       13.71901       -14.87926        -6.36269
   H       14.87515       -12.55535        -8.05784
   H       15.07626       -10.12988        -7.64915
   H       12.81490        -8.10487        -5.54165
   H       15.76036        -8.34719        -6.31925
   H       14.23906        -5.78861        -7.57072
   H       14.05463        -4.57274        -6.29479
   H       12.91438        -5.92901        -6.39463
   H       17.49139        -2.87770        -4.02273
   H       17.22241        -3.55680        -2.40123
   H       15.97127        -2.57747        -3.14617
*
