# ORCA input file
# SCF done       -223.179801958416          0.000800043551
! CAM-B3LYP def2-SVP def2/J RIJCOSX Grid4 TightSCF
%maxcore 5000
%tddft
    Mode sTDDFT
    Ethresh 5.0
    maxcore 5000
end

%pal
  nprocs 6
  end
* xyz 0 1
   C        1.22417         1.77463         1.59310
   C        2.10845         2.61427         0.97107
   C        3.18133         2.16786         0.17015
   N        4.07514         1.85885        -0.47857
   C        2.08600         4.01367         1.12059
   N        2.09155         5.15623         1.23520
   C        1.30718         0.32136         1.61174
   C        0.55293        -0.16786         2.71977
   C        0.47293        -1.50296         2.99808
   C        1.14358        -2.42159         2.16026
   C        1.88037        -1.93888         1.03857
   C        1.95285        -0.55158         0.77819
   C        2.53283        -2.86865         0.20374
   C        2.46603        -4.21044         0.46432
   C        1.74338        -4.68436         1.56971
   C        1.09652        -3.80929         2.39978
   C       -0.08049         0.96049         3.41440
   O       -0.73605         0.95966         4.42805
   C        0.20059         2.15527         2.54801
   C       -0.54779         3.27003         2.72403
   C       -0.74651         4.37094         1.84426
   S       -1.16456         5.92946         2.47070
   C       -1.28022         6.62213         0.88186
   C       -1.02904         5.65674        -0.09540
   C       -0.72912         4.38632         0.45128
   C       -0.51907         3.24735        -0.34466
   N       -0.35860         2.31307        -0.98975
   C       -1.05803         5.86666        -1.48406
   N       -1.07726         6.00682        -2.62262
   C       -1.61660         7.99067         0.75872
   C       -1.75862         8.66235        -0.41771
   C       -2.14922        10.01856        -0.46455
   N       -2.32859        10.72200        -1.62683
   C       -2.07465        10.25267        -2.96964
   C       -0.58398        10.24462        -3.29586
   C       -2.77876        12.03699        -1.38380
   O       -3.03436        12.84169        -2.25183
   C       -2.85800        12.11470         0.06079
   C       -2.47364        10.87898         0.59850
   C       -2.62193        10.96853         2.03988
   O       -2.41291        10.16046         2.92121
   N       -3.11516        12.26555         2.27092
   C       -3.32906        12.73163         3.62214
   C       -2.22659        13.68129         4.08035
   C       -3.26730        12.96791         1.09900
   C       -3.83210        14.22370         0.83069
   C       -4.40522        15.13814         1.67746
   C       -5.11162        16.26432         1.22703
   C       -5.34068        17.45538         1.92445
   N       -5.02126        17.74185         3.26004
   O       -4.51163        16.86287         3.94248
   O       -5.28186        18.85735         3.67523
   C       -5.91661        18.41490         1.03765
   C       -6.03039        17.85904        -0.20297
   C       -5.60540        16.49672        -0.14329
   C       -5.80648        15.52651        -1.11272
   C       -6.21271        14.17327        -0.87017
   C       -6.55959        13.59700        -2.05294
   C       -6.31708        14.53274        -3.10872
   N       -6.49446        14.20301        -4.46620
   O       -6.25621        15.04926        -5.31038
   O       -6.89297        13.07935        -4.71640
   C       -5.84603        15.72871        -2.57022
   C       -5.33369        16.84404        -3.26730
   C       -4.45895        17.74320        -2.72703
   C       -4.03357        18.90109        -3.40952
   C       -3.26448        19.87644        -2.83371
   C       -2.79575        21.10194        -3.45385
   C       -3.02870        21.51629        -4.74029
   C       -2.53730        22.72249        -5.28374
   N       -2.17067        23.68533        -5.79005
   C       -3.78924        20.82573        -5.70765
   N       -4.39589        20.33775        -6.55151
   C       -2.02672        21.84028        -2.45774
   C       -2.02355        21.09830        -1.24187
   C       -2.78688        19.85587        -1.42199
   O       -2.98519        19.00109        -0.58103
   C       -1.38972        21.55066        -0.11974
   C       -0.71324        22.78956        -0.16326
   C       -0.70652        23.53622        -1.37715
   C       -1.37366        23.04282        -2.52196
   C       -0.02754        24.77102        -1.41087
   C        0.61370        25.24746        -0.29969
   C        0.60531        24.51217         0.89516
   C       -0.04398        23.30922         0.96220
   H       -0.09785        -1.85434         3.84473
   H        2.50125        -0.21058        -0.08571
   H        3.08959        -2.49873        -0.64432
   H        2.97002        -4.91464        -0.18028
   H        1.70072        -5.74627         1.75963
   H        0.53788        -4.16866         3.25145
   H       -1.11738         3.29991         3.64897
   H       -1.77979         8.51881         1.69034
   H       -1.59082         8.15596        -1.35542
   H       -2.59424        10.94814        -3.63430
   H       -2.50298         9.25527        -3.09790
   H       -0.17336        11.24664        -3.19759
   H       -0.43898         9.90773        -4.31787
   H       -0.04026         9.57723        -2.63117
   H       -3.32580        11.83584         4.24997
   H       -4.31180        13.20383         3.69429
   H       -1.27019        13.16403         4.09442
   H       -2.44695        14.03711         5.08232
   H       -2.14646        14.54185         3.42109
   H       -3.81660        14.45401        -0.22775
   H       -4.28199        15.06564         2.74858
   H       -6.19786        19.40713         1.33579
   H       -6.47583        18.31697        -1.06479
   H       -6.33669        13.74499         0.10568
   H       -6.94954        12.60980        -2.21228
   H       -5.62396        16.93999        -4.30721
   H       -4.06322        17.58050        -1.73552
   H       -4.36900        19.02195        -4.43159
   H       -1.40729        20.96986         0.79054
   H       -1.35045        23.63478        -3.42279
   H       -0.02457        25.33403        -2.33263
   H        1.13067        26.19458        -0.33541
   H        1.11561        24.90388         1.76222
   H       -0.05478        22.73890         1.87936
*
