# ORCA input file
# SCF done       -220.936961958304          0.000735907281
! CAM-B3LYP def2-SVP def2/J RIJCOSX Grid4 TightSCF
%maxcore 5000
%tddft
    Mode sTDDFT
    Ethresh 5.0
    maxcore 5000
end

%pal
  nprocs 6
  end
* xyz 0 1
   C        7.25141         7.12511         0.90019
   C        5.93477         6.86110         1.16126
   C        5.38139         5.56296         1.23701
   N        4.84231         4.55083         1.28754
   C        4.91430         7.78687         1.44906
   N        3.98678         8.39657         1.74708
   C        8.30331         6.12012         0.79210
   C        9.56737         6.77236         0.69178
   C       10.73753         6.07417         0.61140
   C       10.70009         4.66238         0.62292
   C        9.44064         4.00054         0.70920
   C        8.24584         4.74967         0.79379
   C        9.41418         2.59043         0.71239
   C       10.57414         1.86886         0.63750
   C       11.81332         2.52205         0.55513
   C       11.87506         3.88926         0.54787
   C        9.36404         8.22776         0.67135
   O       10.19221         9.09969         0.56022
   C        7.88318         8.42600         0.74069
   C        7.40270         9.67607         0.57443
   C        6.05283        10.17258         0.47335
   C        5.54148        11.05037         1.40548
   N        6.20926        11.39614         2.58758
   O        5.68629        12.19908         3.33498
   O        7.28840        10.85384         2.79437
   C        4.19987        11.43225         1.04851
   C        3.90221        10.82652        -0.12074
   C        5.03016        10.03077        -0.56553
   C        5.11356         9.26946        -1.71148
   C        6.08214         8.26619        -2.00636
   C        5.61037         7.48879        -3.01782
   C        4.34919         7.99501        -3.47269
   N        3.66168         7.33397        -4.48512
   O        2.47860         7.60411        -4.69298
   O        4.25497         6.45866        -5.09826
   C        4.06428         9.17956        -2.77250
   C        3.22999        10.26767        -3.04200
   C        2.15442        10.33732        -3.90249
   C        1.41557        11.51607        -4.10578
   C        1.77003        12.82480        -3.78740
   F        2.86238        13.20597        -3.13392
   C        0.84775        13.75259        -4.33122
   C       -0.09207        13.04600        -5.02430
   C        0.16359        11.63626        -4.87490
   C       -0.68657        10.67758        -5.37148
   C       -0.87286         9.23529        -5.01919
   C       -1.65931         8.67719        -5.99456
   C       -2.04680         9.72131        -6.89012
   C       -1.54262        10.92588        -6.49122
   F       -2.81670         9.52784        -7.95153
   C       -0.50890         8.54766        -3.83535
   C       -0.02053         9.10705        -2.69744
   C        0.45314         8.43491        -1.52312
   C        0.63864         9.19234        -0.35290
   C        0.50436        10.64818        -0.12859
   O        0.23699        11.51800        -0.92021
   O        0.77394        10.90102         1.16567
   C        1.11823         9.71515         1.86769
   C        1.01660         8.62558         0.85563
   C        1.24601         7.26415         0.96174
   C        1.10931         6.50051        -0.18169
   C        0.74126         7.04875        -1.41783
   C        0.68027         6.18660        -2.57785
   C        0.15640         4.93953        -2.57204
   C       -0.03923         4.22793        -3.78359
   C       -0.65494         3.01695        -3.88603
   C       -1.02264         2.34792        -5.11908
   C       -1.21947         2.96547        -6.32744
   C       -1.58151         2.28714        -7.50879
   N       -1.86161         1.77663        -8.49788
   C       -1.20042         4.36498        -6.49155
   N       -1.28393         5.49990        -6.64864
   C       -1.32567         0.96024        -4.80045
   C       -1.31181         0.81297        -3.38249
   C       -0.94586         2.09665        -2.75413
   O       -0.87813         2.33441        -1.56737
   C       -1.61681        -0.37444        -2.78238
   C       -1.95329        -1.48729        -3.58576
   C       -1.95789        -1.34933        -5.00422
   C       -1.63678        -0.10781        -5.59911
   C       -2.29940        -2.46597        -5.79404
   C       -2.62525        -3.66118        -5.21301
   C       -2.62065        -3.79602        -3.81663
   C       -2.29099        -2.73267        -3.02060
   H       11.68074         6.59508         0.54157
   H        7.30996         4.21721         0.85336
   H        8.45817         2.09203         0.77750
   H       10.54379         0.78969         0.64172
   H       12.71848         1.93649         0.49706
   H       12.82569         4.39796         0.48432
   H        8.18110        10.43880         0.53318
   H        3.57596        12.07105         1.64279
   H        2.95509        10.87216        -0.61554
   H        7.00457         8.11927        -1.48532
   H        6.07629         6.61778        -3.44034
   H        3.48635        11.16519        -2.50221
   H        1.84599         9.45733        -4.44529
   H        0.90636        14.81671        -4.20359
   H       -0.95295        13.45831        -5.51314
   H       -1.96206         7.65085        -6.07739
   H       -1.64189        11.85559        -7.01440
   H       -0.73101         7.48998        -3.86515
   H       -0.03196        10.18418        -2.60892
   H        0.42851         9.58812         2.70812
   H        2.13857         9.81054         2.25372
   H        1.54033         6.81781         1.89740
   H        1.32410         5.44340        -0.13727
   H        1.06412         6.59702        -3.50448
   H       -0.22975         4.50105        -1.66339
   H        0.29815         4.72121        -4.68813
   H       -1.60806        -0.46283        -1.70605
   H       -1.64309        -0.03155        -6.67529
   H       -2.30383        -2.35637        -6.86860
   H       -2.88955        -4.50944        -5.82646
   H       -2.88044        -4.74638        -3.37484
   H       -2.28634        -2.83070        -1.94483
*
