# ORCA input file
# SCF done       -186.304045840497          0.000941085885
! CAM-B3LYP def2-SVP def2/J RIJCOSX Grid4 TightSCF
%maxcore 5000
%tddft
    Mode sTDDFT
    Ethresh 5.0
    maxcore 5000
end

%pal
  nprocs 6
  end
* xyz 0 1
   C       -2.45652         5.24752         4.12419
   C       -1.54179         4.58231         3.35614
   C       -1.21211         3.22241         3.53656
   N       -0.92075         2.11705         3.63903
   C       -0.75666         5.19077         2.35392
   N       -0.05091         5.63870         1.56767
   C       -3.11575         4.71957         5.31203
   C       -3.60821         5.81198         6.08585
   C       -4.25231         5.61599         7.27400
   C       -4.44562         4.29802         7.74438
   C       -3.96766         3.20156         6.96905
   C       -3.29849         3.43343         5.74610
   C       -4.17432         1.89103         7.44640
   C       -4.82065         1.67192         8.63213
   C       -5.29100         2.75181         9.39464
   C       -5.10663         4.03649         8.96097
   C       -3.32680         7.07597         5.38421
   O       -3.53971         8.20539         5.75652
   C       -2.77450         6.66659         4.05580
   C       -2.77114         7.53911         3.02758
   C       -2.62668         7.22972         1.62252
   C       -1.95359         8.07796         0.74885
   C       -1.82453         7.73532        -0.59961
   C       -2.42167         6.53242        -1.00355
   N       -3.12059         5.75876        -0.19802
   C       -3.22620         6.08765         1.07071
   C       -1.10264         8.61637        -1.48644
   C       -0.74456         8.32807        -2.75532
   C       -0.02732         9.24318        -3.57723
   N        0.35703         8.95479        -4.86790
   C        0.05724         7.75679        -5.61298
   C       -1.37877         7.75456        -6.13268
   C        1.06151        10.01636        -5.45838
   O        1.49458         9.98040        -6.59541
   C        1.11096        11.02890        -4.43075
   C        0.42879        10.52312        -3.28830
   C        0.48231        11.53447        -2.25926
   O        0.04675        11.57059        -1.12354
   N        1.20518        12.58865        -2.84368
   C        1.43136        13.82324        -2.13263
   C        0.47570        14.92530        -2.58406
   C        1.58366        12.30161        -4.13603
   C        2.34552        13.18903        -4.94956
   C        2.69019        12.87852        -6.21743
   C        3.47533        13.69400        -7.11316
   C        3.92233        14.98282        -6.82241
   C        4.68820        15.68255        -7.75829
   C        4.96759        15.02904        -8.96985
   N        4.54846        13.81427        -9.26108
   C        3.82783        13.16679        -8.36810
   C        5.19197        17.01641        -7.54489
   C        4.96734        17.79044        -6.45903
   C        5.51193        19.09615        -6.35516
   C        5.32007        19.93958        -5.30141
   C        5.85198        21.28522        -5.15865
   C        6.68711        21.93839        -6.02685
   C        7.17094        23.24877        -5.82562
   N        7.60139        24.30861        -5.72708
   C        7.19553        21.41790        -7.23554
   N        7.65661        21.07283        -8.22933
   C        5.34607        21.83126        -3.90460
   C        4.53862        20.84544        -3.26870
   C        4.49763        19.63206        -4.10105
   O        3.90753        18.60120        -3.84670
   C        3.92771        21.07631        -2.06965
   C        4.09718        22.32879        -1.43896
   C        4.90220        23.32134        -2.06893
   C        5.52341        23.05291        -3.30975
   C        5.06425        24.56898        -1.43262
   C        4.46074        24.82562        -0.23181
   C        3.66823        23.84757         0.38767
   C        3.49041        22.62584        -0.20278
   H       -4.61291         6.45706         7.84736
   H       -2.95668         2.58583         5.17271
   H       -3.80793         1.06335         6.85710
   H       -4.97313         0.66467         8.98973
   H       -5.80020         2.56035        10.32728
   H       -5.46635         4.87170         9.54389
   H       -2.97529         8.57480         3.27989
   H       -1.48986         8.98135         1.11794
   H       -2.35660         6.18207        -2.02378
   H       -3.83924         5.43492         1.67959
   H       -0.82609         9.57681        -1.07096
   H       -0.98263         7.36727        -3.18650
   H        0.24992         6.87809        -4.99101
   H        0.75127         7.74716        -6.45831
   H       -2.09214         7.81688        -5.31361
   H       -1.56654         6.84271        -6.69287
   H       -1.53508         8.60554        -6.79112
   H        2.47195        14.13577        -2.25847
   H        1.25851        13.59782        -1.07643
   H        0.58457        15.12598        -3.64765
   H        0.68243        15.83918        -2.03417
   H       -0.55225        14.62697        -2.39279
   H        2.65058        14.12437        -4.50353
   H        2.37178        11.92748        -6.62320
   H        3.67762        15.44326        -5.87815
   H        5.55404        15.51988        -9.73605
   H        3.50864        12.17152        -8.64808
   H        5.80254        17.41463        -8.34750
   H        4.36284        17.44337        -5.63583
   H        6.11699        19.42858        -7.18893
   H        3.32064        20.31163        -1.60793
   H        6.12487        23.82642        -3.75970
   H        5.67555        25.31836        -1.91370
   H        4.59068        25.78421         0.24768
   H        3.19926        24.06729         1.33510
   H        2.88122        21.86920         0.26977
*
