# ORCA input file
# SCF done       -244.367948735641          0.000826618965
! CAM-B3LYP def2-SVP def2/J RIJCOSX Grid4 TightSCF
%maxcore 5000
%tddft
    Mode sTDDFT
    Ethresh 5.0
    maxcore 5000
end

%pal
  nprocs 6
  end
* xyz 0 1
   C      -13.01194        -3.65767        -0.14468
   C      -13.85916        -4.20660        -1.06630
   F      -14.84599        -3.47285        -1.59093
   C      -13.70915        -5.54834        -1.47335
   F      -14.55649        -6.05595        -2.37397
   C      -12.71691        -6.32694        -0.94693
   C      -11.82885        -5.78871         0.00340
   C      -11.97152        -4.42900         0.40821
   C      -11.06101        -3.85821         1.32646
   C      -10.02010        -4.61295         1.79982
   C       -9.88283        -5.96890         1.38663
   C      -10.76940        -6.55886         0.53030
   C       -8.62996        -6.51574         1.92153
   O       -8.25991        -7.67246         1.90876
   C       -7.94381        -5.36312         2.57253
   C       -8.87443        -4.25938         2.63309
   C       -8.66706        -3.05661         3.25614
   C       -7.48379        -2.71752         3.94564
   N       -6.52904        -2.37512         4.48181
   C       -9.60995        -2.00734         3.27219
   N      -10.34677        -1.12953         3.32595
   C       -6.65153        -5.45437         3.03606
   C       -5.73639        -6.32592         2.42732
   C       -4.70885        -7.10376         2.96537
   N       -4.32786        -7.14260         4.32090
   O       -3.40540        -7.87538         4.62339
   O       -4.93973        -6.43479         5.10155
   C       -4.18822        -7.94388         1.95027
   C       -4.88836        -7.71605         0.78137
   C       -5.82519        -6.69113         1.00346
   C       -6.67734        -6.02802         0.11122
   C       -6.93793        -4.63103         0.08659
   C       -7.89990        -4.38282        -0.85130
   C       -8.31974        -5.61838        -1.43053
   N       -9.49032        -5.66746        -2.19710
   O      -10.09279        -4.61533        -2.35752
   O       -9.90102        -6.74091        -2.61100
   C       -7.53325        -6.66374        -0.90026
   C       -7.58155        -8.06245        -0.98149
   C       -8.20386        -8.84774        -1.92242
   C       -8.34507       -10.24141        -1.89125
   N       -8.19751       -11.12792        -0.84982
   C       -7.87966       -10.86091         0.53727
   C       -6.38578       -11.01247         0.81268
   C       -8.47263       -12.44705        -1.24308
   O       -8.40317       -13.40262        -0.49757
   C       -8.82956       -12.35002        -2.64829
   C       -8.74993       -11.00406        -3.00957
   C       -9.08052       -10.88341        -4.41918
   O       -9.10711        -9.94350        -5.17433
   N       -9.37172       -12.21230        -4.81066
   C       -9.82780       -12.50592        -6.14895
   C      -11.34561       -12.65907        -6.20649
   C       -9.22793       -13.09941        -3.77779
   C       -9.43802       -14.48357        -3.88813
   C       -9.22966       -15.33386        -2.83239
   C       -9.38819       -16.72692        -2.81785
   S       -8.63565       -17.58760        -1.51322
   C       -9.05935       -19.13901        -2.14697
   C       -9.81581       -18.99471        -3.33198
   C      -10.03279       -17.63143        -3.69715
   C      -10.86809       -17.33934        -4.78316
   C      -11.41611       -18.36659        -5.52287
   C      -12.25170       -18.06112        -6.62337
   N      -12.91484       -17.77848        -7.51328
   C      -11.15355       -19.72412        -5.18724
   C      -11.71704       -20.75645        -5.97542
   N      -12.16266       -21.59667        -6.61281
   C      -10.37650       -20.03076        -4.09169
   C       -8.59078       -20.35260        -1.60990
   C       -8.08150       -20.62059        -0.37300
   C       -7.19476       -21.80920        -0.20196
   O       -7.05204       -22.71604        -0.98700
   C       -6.50303       -21.58726         1.08168
   C       -5.49049       -22.30830         1.64656
   C       -4.95410       -21.88531         2.88337
   C       -5.47699       -20.71694         3.51163
   C       -4.93000       -20.29659         4.74038
   C       -3.91391       -21.00387         5.32003
   C       -3.39889       -22.16032         4.69883
   C       -3.90767       -22.59304         3.50614
   F       -2.40300       -22.83181         5.28814
   F       -3.39574       -20.60355         6.48609
   C       -6.53260       -19.99551         2.90786
   C       -7.04128       -20.42851         1.71325
   C       -8.13078       -19.91548         0.88728
   C       -9.16382       -19.13073         1.33140
   C      -10.32624       -18.90058         0.56896
   N      -11.29042       -18.73412        -0.03166
   C       -9.21503       -18.55975         2.61949
   N       -9.29388       -18.06773         3.65271
   H      -13.13586        -2.62649         0.14659
   H      -12.59931        -7.34521        -1.28239
   H      -11.19295        -2.82629         1.60943
   H      -10.63937        -7.58443         0.21823
   H       -6.30728        -4.86118         3.87569
   H       -3.38554        -8.64164         2.09902
   H       -4.66272        -8.14306        -0.17801
   H       -6.40542        -3.90176         0.66757
   H       -8.31632        -3.43133        -1.12267
   H       -7.01416        -8.55196        -0.20475
   H       -8.62411        -8.38955        -2.80745
   H       -8.42169       -11.60621         1.12706
   H       -8.23790        -9.86844         0.81400
   H       -6.08969       -12.05142         0.69067
   H       -6.17200       -10.70426         1.83170
   H       -5.79439       -10.40449         0.13212
   H       -9.32652       -13.40460        -6.51871
   H       -9.52353       -11.65578        -6.76540
   H      -11.68693       -13.45911        -5.55287
   H      -11.65425       -12.88326        -7.22336
   H      -11.82348       -11.73375        -5.89532
   H       -9.72541       -14.86648        -4.85414
   H       -8.85562       -14.90511        -1.90973
   H      -11.12355       -16.32319        -5.03368
   H      -10.21718       -21.06236        -3.81911
   H       -8.53213       -21.18524        -2.30552
   H       -5.10265       -23.18819         1.15641
   H       -5.31445       -19.41626         5.23133
   H       -3.50254       -23.47951         3.04385
   H       -6.90576       -19.11071         3.39881
*
