# ORCA input file
# SCF done       -263.897986767890          0.000482690670
! CAM-B3LYP def2-SVP def2/J RIJCOSX Grid4 TightSCF
%maxcore 5000
%tddft
    Mode sTDDFT
    Ethresh 5.0
    maxcore 5000
end

%pal
  nprocs 6
  end
* xyz 0 1
   C       -2.83543         2.77165        -3.28581
   C       -1.59343         3.23059        -3.62522
   F       -1.46503         4.30378        -4.41410
   C       -0.43464         2.58257        -3.15080
   F        0.76857         3.05434        -3.49911
   C       -0.53430         1.48416        -2.34319
   C       -1.79989         0.98765        -1.97561
   C       -2.97225         1.64167        -2.45481
   C       -4.25361         1.16131        -2.09988
   C       -4.36012         0.06171        -1.28938
   C       -3.18282        -0.58302        -0.81328
   C       -1.93210        -0.14401        -1.14075
   C       -3.56551        -1.72422         0.03319
   O       -2.81337        -2.50922         0.58175
   C       -5.03406        -1.71906         0.08418
   C       -5.52463        -0.64726        -0.76694
   C       -6.83081        -0.35988        -1.06325
   C       -7.23411         0.69544        -1.90990
   N       -7.62406         1.53556        -2.58705
   C       -7.95197        -1.07752        -0.59505
   N       -8.90392        -1.62801        -0.26226
   C       -5.81363        -2.52727         0.86204
   C       -5.46205        -3.58806         1.71810
   S       -3.88233        -4.31187         1.82223
   C       -4.46667        -5.51939         2.91919
   C       -5.78512        -5.30816         3.27660
   C       -6.36076        -4.24552         2.56457
   C       -7.81030        -3.87699         2.72416
   C       -7.91443        -2.68043         3.67585
   F       -7.43835        -2.95103         4.90263
   F       -7.22439        -1.61528         3.23900
   F       -9.17659        -2.27337         3.84093
   C       -8.71374        -5.02686         3.23969
   C       -7.96643        -6.31818         3.56863
   C       -6.66467        -5.96689         4.30183
   C       -6.14300        -7.14430         5.10943
   F       -4.89161        -6.96788         5.56343
   F       -6.90904        -7.29475         6.20785
   F       -6.17107        -8.33127         4.49897
   C       -3.66629        -6.69296         3.13949
   N       -2.39120        -6.73542         3.62847
   C       -1.63237        -5.61370         4.12812
   C       -2.26031        -5.00622         5.37688
   C       -1.89246        -8.05145         3.63656
   O       -0.79098        -8.35162         4.06264
   C       -2.94661        -8.84352         3.04687
   C       -4.02444        -7.96720         2.74972
   C       -5.06068        -8.72376         2.08050
   O       -6.13227        -8.39311         1.61800
   N       -4.55422       -10.03317         2.05053
   C       -5.28334       -11.10694         1.42080
   C       -4.74927       -11.41023         0.02283
   C       -3.30306       -10.11860         2.61545
   C       -2.54859       -11.31437         2.72425
   C       -1.30383       -11.29386         3.26076
   C       -0.45590       -12.41464         3.41927
   S       -1.01343       -14.04610         3.24630
   C        0.53396       -14.68676         3.72263
   C        1.43004       -13.66259         3.98451
   C        0.88905       -12.38554         3.76567
   C        1.70440       -11.13587         3.80508
   N        1.51817       -10.29387         2.56940
   O        2.09292        -9.23802         2.58143
   O        0.86221       -10.73125         1.66129
   C        3.20296       -11.45927         3.86250
   C        3.46645       -12.55288         4.88682
   C        2.85373       -13.87041         4.39675
   N        2.94128       -14.82617         5.53557
   O        2.15106       -14.67638         6.43447
   O        3.81776       -15.65025         5.49415
   C        0.71406       -16.09986         3.80449
   C        0.16237       -17.01886         2.97305
   C        0.00581       -18.44243         3.39330
   O        0.53527       -18.98456         4.33117
   C       -0.98182       -19.00681         2.44888
   C       -1.57002       -20.23872         2.46226
   C       -2.50959       -20.56254         1.45769
   C       -2.82613       -19.59793         0.45660
   C       -3.76727       -19.92748        -0.53952
   C       -4.36346       -21.15717        -0.54406
   C       -4.04886       -22.11083         0.44551
   C       -3.14152       -21.82098         1.42582
   F       -4.64972       -23.30680         0.41677
   F       -5.25593       -21.46847        -1.49186
   C       -2.19694       -18.33243         0.46360
   C       -1.28440       -18.04364         1.44288
   C       -0.45988       -16.86361         1.67245
   C       -0.11613       -15.92507         0.73459
   C        0.93539       -15.01031         0.94563
   N        1.83210       -14.31183         1.10685
   C       -0.70463       -15.84184        -0.54290
   N       -1.18214       -15.72670        -1.57986
   H       -3.71174         3.27902        -3.65806
   H        0.36196         0.99967        -1.98869
   H       -5.11964         1.68007        -2.47751
   H       -1.05656        -0.65282        -0.76725
   H       -6.87362        -2.32090         0.83337
   H       -8.20558        -3.51390         1.76974
   H       -9.47524        -5.23865         2.49091
   H       -9.22944        -4.68598         4.13988
   H       -7.71441        -6.87721         2.66465
   H       -8.60048        -6.94731         4.19402
   H       -6.88164        -5.21615         5.07530
   H       -1.54293        -4.85928         3.33960
   H       -0.63833        -6.00788         4.35575
   H       -3.23363        -4.57694         5.15120
   H       -1.61661        -4.22176         5.76369
   H       -2.39006        -5.76645         6.14243
   H       -6.32072       -10.76811         1.35411
   H       -5.24347       -11.99602         2.05609
   H       -4.84333       -10.53048        -0.60873
   H       -5.32075       -12.21968        -0.42252
   H       -3.70103       -11.69863         0.05741
   H       -2.96986       -12.23964         2.35769
   H       -0.91128       -10.34802         3.60885
   H        1.41301       -10.48943         4.64165
   H        3.75962       -10.55639         4.11281
   H        3.53224       -11.80587         2.87941
   H        3.01197       -12.28286         5.84357
   H        4.53975       -12.68039         5.03302
   H        3.44068       -14.29319         3.57343
   H        1.25793       -16.50077         4.65307
   H       -1.32081       -20.95750         3.22785
   H       -4.01658       -19.21101        -1.30655
   H       -2.91166       -22.56167         2.17561
   H       -2.45684       -17.61674        -0.30031
*
