# ORCA input file
# SCF done       -223.612885568223          0.000562048933
! CAM-B3LYP def2-SVP def2/J RIJCOSX Grid4 TightSCF
%maxcore 5000
%tddft
    Mode sTDDFT
    Ethresh 5.0
    maxcore 5000
end

%pal
  nprocs 6
  end
* xyz 0 1
   C       -0.09400         0.47294        -1.92766
   C        1.07473         0.17299        -2.56965
   F        1.87704         1.15398        -3.00061
   C        1.45058        -1.16837        -2.78616
   F        2.60140        -1.43252        -3.41780
   C        0.65213        -2.19152        -2.35717
   C       -0.55792        -1.91488        -1.69179
   C       -0.93945        -0.55904        -1.47290
   C       -2.14996        -0.25710        -0.80852
   C       -2.95600        -1.27865        -0.37838
   C       -2.56630        -2.63139        -0.60163
   C       -1.40068        -2.95285        -1.23582
   C       -3.58890        -3.52736        -0.03948
   O       -3.54071        -4.73041         0.09846
   C       -4.67522        -2.63705         0.45169
   C       -4.24217        -1.25989         0.31315
   C       -4.91522        -0.14584         0.73606
   C       -4.44422         1.17448         0.57404
   N       -4.11155         2.26790         0.47151
   C       -6.15783        -0.17319         1.40449
   N       -7.16574        -0.13385         1.95169
   C       -5.81998        -3.14169         0.97488
   C       -6.14194        -4.52913         0.86009
   N       -6.60503        -5.23475         1.87351
   N       -6.74581        -6.49121         1.83933
   C       -6.13814        -7.12591         0.79044
   N       -6.05655        -6.40856        -0.31733
   N       -6.19489        -5.16671        -0.36170
   C       -5.76498        -8.49648         0.80379
   N       -5.78579        -9.30882         1.91075
   C       -6.25777        -8.97810         3.23411
   C       -7.77617        -9.08583         3.33134
   C       -5.35858       -10.61032         1.59863
   O       -5.28580       -11.50874         2.41580
   C       -5.05273       -10.56102         0.18759
   C       -5.29910        -9.24391        -0.27029
   C       -4.98538        -9.19157        -1.68851
   O       -5.04181        -8.31024        -2.51001
   N       -4.55471       -10.50708        -1.98628
   C       -4.17442       -10.88104        -3.32832
   C       -2.65786       -10.90080        -3.50415
   C       -4.59214       -11.32198        -0.88843
   C       -4.23996       -12.69731        -0.91805
   C       -4.42878       -13.50786         0.15255
   C       -4.15910       -14.90402         0.19648
   S       -3.87943       -15.60898         1.76004
   C       -3.51696       -17.15963         1.06769
   C       -3.64735       -17.11922        -0.30955
   C       -4.05427       -15.86438        -0.79906
   C       -4.50518       -15.74708        -2.22301
   N       -5.61211       -14.77035        -2.38139
   O       -6.51353       -14.80827        -1.58783
   O       -5.54249       -14.02755        -3.33334
   C       -5.08307       -17.10814        -2.64004
   C       -3.98815       -18.16395        -2.59479
   C       -3.37078       -18.29409        -1.20128
   N       -1.86975       -18.31254        -1.29789
   O       -1.35553       -17.57756        -2.10090
   O       -1.29120       -19.02372        -0.51798
   C       -3.14006       -18.26281         1.89708
   C       -3.66431       -18.55324         3.11064
   C       -2.93854       -19.43495         4.07546
   O       -2.01517       -20.17000         3.83050
   C       -3.56968       -19.16069         5.38282
   C       -3.20283       -19.60747         6.61996
   C       -3.95021       -19.19924         7.74722
   C       -5.06295       -18.32477         7.57208
   C       -5.79851       -17.91640         8.70300
   C       -5.45019       -18.35965         9.94793
   C       -4.35190       -19.22727        10.11968
   C       -3.61656       -19.63837         9.04342
   F       -4.03426       -19.64549        11.35084
   F       -6.15096       -17.97336        11.02039
   C       -5.42470       -17.88362         6.27922
   C       -4.69345       -18.30312         5.19999
   C       -4.85869       -18.05746         3.77284
   C       -6.02456       -17.69831         3.15101
   C       -6.19305       -17.78369         1.75407
   N       -6.34718       -17.91545         0.62404
   C       -7.19571       -17.32463         3.84288
   N       -8.16406       -17.01079         4.37112
   H       -0.36676         1.50478        -1.77026
   H        0.95359        -3.21256        -2.53099
   H       -2.41082         0.77807        -0.65865
   H       -1.12917        -3.98560        -1.39257
   H       -6.54146        -2.52408         1.49051
   H       -5.93387        -7.96732         3.49089
   H       -5.78975        -9.69817         3.91112
   H       -8.24977        -8.36673         2.66866
   H       -8.09092        -8.88061         4.35012
   H       -8.09761       -10.08868         3.06082
   H       -4.60498       -10.12117        -3.98593
   H       -4.61606       -11.85027        -3.57664
   H       -2.24848        -9.91342        -3.30530
   H       -2.41251       -11.17937        -4.52496
   H       -2.18925       -11.61052        -2.82567
   H       -3.81321       -13.07365        -1.83514
   H       -4.77258       -13.06991         1.08164
   H       -3.70051       -15.44374        -2.90301
   H       -5.48701       -17.04709        -3.65171
   H       -5.88840       -17.36831        -1.94883
   H       -3.20032       -17.88351        -3.29959
   H       -4.39908       -19.12420        -2.90408
   H       -3.65803       -19.22033        -0.69877
   H       -2.31071       -18.88011         1.56257
   H       -2.35455       -20.26447         6.73696
   H       -6.64383       -17.25598         8.58880
   H       -2.77900       -20.30181         9.19186
   H       -6.26503       -17.21622         6.17163
*
