# ORCA input file
# SCF done       -243.531083697952          0.000479632153
! CAM-B3LYP def2-SVP def2/J RIJCOSX Grid4 TightSCF
%maxcore 5000
%tddft
    Mode sTDDFT
    Ethresh 5.0
    maxcore 5000
end

%pal
  nprocs 6
  end
* xyz 0 1
   C      -13.89837        -1.14583        -5.00365
   C      -15.17189        -1.41530        -4.58707
   F      -16.16455        -0.56047        -4.85927
   C      -15.45732        -2.59394        -3.86758
   F      -16.71437        -2.83348        -3.47390
   C      -14.46445        -3.48582        -3.57384
   C      -13.14173        -3.23672        -3.98945
   C      -12.85177        -2.04560        -4.71752
   C      -11.53207        -1.77537        -5.14504
   C      -10.53529        -2.66928        -4.85329
   C      -10.83336        -3.85905        -4.13042
   C      -12.09889        -4.14482        -3.70335
   C       -9.60825        -4.66265        -3.96406
   O       -9.50765        -5.71793        -3.37887
   C       -8.55407        -3.92617        -4.71457
   C       -9.10937        -2.65498        -5.15066
   C       -8.39161        -1.60266        -5.64673
   C       -6.98288        -1.59928        -5.74844
   N       -5.83863        -1.52795        -5.79495
   C       -8.96398        -0.37463        -6.04136
   N       -9.38625         0.63783        -6.37696
   C       -7.37843        -4.46383        -5.12615
   C       -6.81623        -5.69645        -4.67644
   C       -6.35159        -6.72187        -5.48227
   N       -6.40400        -6.75074        -6.88857
   O       -6.92581        -5.80622        -7.45815
   O       -5.92342        -7.71659        -7.45007
   C       -5.89927        -7.81802        -4.66884
   C       -6.13249        -7.50319        -3.37277
   C       -6.70511        -6.17703        -3.30518
   C       -6.97582        -5.45406        -2.16019
   C       -6.83565        -4.04956        -1.97662
   C       -6.92628        -3.77068        -0.64138
   C       -7.22157        -4.97527         0.06954
   N       -7.45694        -5.01575         1.45228
   O       -7.72643        -6.09296         1.96608
   O       -7.36769        -3.96972         2.06994
   C       -7.30886        -6.03188        -0.84160
   C       -7.80809        -7.32347        -0.61316
   C       -8.32912        -8.09674        -1.62063
   C       -8.75451        -9.43523        -1.61724
   N       -8.83763       -10.36714        -0.61113
   C       -8.63897       -10.16331         0.80581
   C       -9.79577        -9.39816         1.44142
   C       -9.25925       -11.62525        -1.09459
   O       -9.42094       -12.59998        -0.39554
   C       -9.41270       -11.42744        -2.52410
   C       -9.11032       -10.08961        -2.80857
   C       -9.21339        -9.90250        -4.24039
   O       -9.03945        -8.94319        -4.95512
   N       -9.59598       -11.18017        -4.73082
   C       -9.79132       -11.35678        -6.15060
   C       -8.51314       -11.82411        -6.84430
   C       -9.70281       -12.09755        -3.72107
   C      -10.05499       -13.47452        -3.75448
   C      -10.16592       -14.30570        -4.81484
   C      -10.53850       -15.69844        -4.74002
   C      -10.42239       -16.48314        -5.88862
   C      -10.77207       -17.82232        -5.87455
   N      -10.66353       -18.56542        -7.10673
   O      -10.10220       -18.02606        -8.03448
   O      -11.14159       -19.67858        -7.13713
   C      -11.26641       -18.44327        -4.71902
   C      -11.38570       -17.64575        -3.57478
   C      -11.03250       -16.31524        -3.57961
   C      -11.59716       -19.86220        -4.66977
   C      -12.78660       -20.36949        -4.28611
   C      -13.91783       -19.55819        -3.98646
   C      -15.16053       -19.92753        -3.58434
   C      -16.03636       -18.87750        -2.98322
   O      -15.86227       -17.68204        -3.04036
   C      -17.08739       -19.61235        -2.25793
   C      -18.07188       -19.12271        -1.44756
   C      -18.95526       -20.02616        -0.81724
   C      -18.79269       -21.42599        -1.03192
   C      -19.67093       -22.32409        -0.39240
   C      -20.66559       -21.85453         0.41855
   C      -20.82678       -20.46944         0.62851
   C      -19.99035       -19.57338         0.02435
   F      -21.80932       -20.03844         1.42919
   F      -21.49934       -22.70808         1.02436
   C      -17.76760       -21.90296        -1.87995
   C      -16.93202       -21.00830        -2.49449
   C      -15.83484       -21.20510        -3.44175
   C      -15.65065       -22.33158        -4.19415
   C      -14.77562       -22.44109        -5.29765
   N      -14.12674       -22.58943        -6.23150
   C      -16.40478       -23.51435        -4.02707
   N      -16.97370       -24.50527        -3.92412
   H      -13.69733        -0.23890        -5.55213
   H      -14.69927        -4.38288        -3.02264
   H      -11.34235        -0.87151        -5.70148
   H      -12.30098        -5.05372        -3.15723
   H       -6.83509        -3.97626        -5.92901
   H       -5.46505        -8.71426        -5.06759
   H       -5.85065        -8.07813        -2.51220
   H       -6.56520        -3.35727        -2.75106
   H       -6.80444        -2.81531        -0.16583
   H       -7.82933        -7.64085         0.41999
   H       -8.46335        -7.63163        -2.58901
   H       -7.68854        -9.65057         0.97171
   H       -8.57592       -11.16359         1.24416
   H       -9.95081        -8.43990         0.95210
   H       -9.57913        -9.21652         2.48977
   H      -10.71249        -9.97826         1.36816
   H      -10.06684       -10.37376        -6.54412
   H      -10.62237       -12.04527        -6.31728
   H       -7.75385       -11.04931        -6.77557
   H       -8.71328       -12.01426        -7.89490
   H       -8.12161       -12.73112        -6.38814
   H      -10.20560       -13.86805        -2.75742
   H       -9.93617       -13.96122        -5.81119
   H      -10.05971       -16.06067        -6.81476
   H      -11.74543       -18.09964        -2.66386
   H      -11.15057       -15.74282        -2.67360
   H      -10.80711       -20.54688        -4.94814
   H      -12.88962       -21.44130        -4.22877
   H      -13.76497       -18.48367        -4.01060
   H      -18.17425       -18.05979        -1.29020
   H      -19.56424       -23.38664        -0.54550
   H      -20.12688       -18.51705         0.19523
   H      -17.66411       -22.96752        -2.01500
*
