# ORCA input file
# SCF done       -236.600427333302          0.000950507888
! CAM-B3LYP def2-SVP def2/J RIJCOSX Grid4 TightSCF
%maxcore 5000
%tddft
    Mode sTDDFT
    Ethresh 5.0
    maxcore 5000
end

%pal
  nprocs 6
  end
* xyz 0 1
   C       -1.57689         2.84452         2.98838
   C       -0.37338         3.49150         3.01793
   F       -0.32267         4.82331         2.90524
   C        0.82788         2.76730         3.16643
   F        1.99094         3.42793         3.19105
   C        0.80821         1.40557         3.28307
   C       -0.41623         0.70974         3.25461
   C       -1.63156         1.44082         3.10582
   C       -2.87190         0.76448         3.07607
   C       -2.89588        -0.60162         3.18770
   C       -1.67766        -1.32413         3.32490
   C       -0.46463        -0.69722         3.36392
   C       -1.96069        -2.76873         3.39898
   O       -1.15410        -3.65227         3.57370
   C       -3.43131        -2.89479         3.18909
   C       -4.00096        -1.55207         3.19420
   C       -5.32793        -1.23284         3.28123
   C       -6.38138        -2.16484         3.41381
   N       -7.28194        -2.86248         3.55270
   C       -5.81702         0.09215         3.30822
   N       -6.27130         1.14527         3.32938
   C       -4.12749        -4.01959         2.87822
   C       -3.70456        -5.37391         2.82559
   O       -4.60712        -6.23336         2.27205
   C       -4.10329        -7.46921         2.29140
   C       -2.83767        -7.42290         2.89859
   C       -2.58772        -6.08251         3.23493
   N       -1.96323        -8.51191         3.15106
   O       -2.35319        -9.62655         2.85645
   O       -0.88991        -8.25855         3.64698
   C       -4.80840        -8.56070         1.71632
   C       -6.00537        -8.40012         1.09901
   C       -6.67325        -9.42768         0.37160
   C       -7.27626        -9.23589        -0.85981
   N       -7.45137        -8.02105        -1.56117
   O       -6.98223        -6.99936        -1.09035
   O       -8.07937        -8.07296        -2.60070
   C       -7.61380       -10.51017        -1.44574
   C       -7.28254       -11.48215        -0.56985
   C       -6.79819       -10.87458         0.65599
   C       -6.69444       -11.48185         1.88180
   C       -6.14663       -10.91752         3.09297
   C       -5.83075       -11.92125         3.94129
   C       -6.25608       -13.17247         3.35924
   N       -6.13760       -14.40019         4.04711
   O       -6.54747       -15.41243         3.50532
   O       -5.62380       -14.36890         5.14803
   C       -6.89155       -12.93217         2.15572
   C       -7.66035       -13.87854         1.42570
   C       -8.81371       -13.57092         0.77792
   C       -9.59708       -14.49485         0.03600
   S      -11.03677       -13.92947        -0.77131
   C      -11.31733       -15.46899        -1.48733
   C      -10.32979       -16.39647        -1.09225
   C       -9.37462       -15.82825        -0.22828
   C      -10.29411       -17.75499        -1.59213
   O      -10.99715       -18.23546        -2.45144
   C       -9.21890       -18.66881        -0.93379
   F       -9.34551       -18.70164         0.40280
   F       -9.31783       -19.91827        -1.37290
   F       -7.97158       -18.24659        -1.19763
   C      -12.36695       -15.69870        -2.40558
   C      -13.21994       -14.74994        -2.86619
   C      -14.19433       -14.99234        -3.87206
   C      -14.17767       -15.90776        -4.87599
   C      -15.46399       -16.20285        -5.58609
   O      -16.48123       -15.55732        -5.51287
   C      -15.22245       -17.45411        -6.32381
   C      -16.10660       -18.21738        -7.03230
   C      -15.65044       -19.40630        -7.64288
   C      -14.28616       -19.79249        -7.49029
   C      -13.83967       -20.98584        -8.09311
   C      -14.70443       -21.75536        -8.81965
   C      -16.05271       -21.37052        -8.97310
   C      -16.51740       -20.22178        -8.39655
   F      -16.87625       -22.14362        -9.69049
   F      -14.27938       -22.88506        -9.39568
   C      -13.39414       -18.98189        -6.75262
   C      -13.85197       -17.81920        -6.19152
   C      -13.15848       -16.78392        -5.42843
   C      -11.80612       -16.57698        -5.46529
   C      -11.13275       -15.48679        -4.88103
   N      -10.52032       -14.62162        -4.43965
   C      -10.90523       -17.41070        -6.16525
   N      -10.12683       -18.04420        -6.71991
   H       -2.48613         3.41416         2.87577
   H        1.73560         0.86618         3.39559
   H       -3.77274         1.34438         2.95660
   H        0.44424        -1.26914         3.47278
   H       -5.16315        -3.90997         2.57790
   H       -1.70740        -5.69485         3.70604
   H       -4.30044        -9.51403         1.74193
   H       -6.41128        -7.39992         1.00753
   H       -8.02142       -10.61798        -2.43254
   H       -7.35198       -12.53572        -0.74413
   H       -5.98338        -9.87451         3.26565
   H       -5.36408       -11.84975         4.90516
   H       -7.34997       -14.91073         1.51202
   H       -9.19284       -12.55773         0.81370
   H       -8.53669       -16.35838         0.18415
   H      -12.45514       -16.71317        -2.76839
   H      -13.20001       -13.75731        -2.43322
   H      -15.09729       -14.38962        -3.82817
   H      -17.13911       -17.91718        -7.12575
   H      -12.81071       -21.29249        -7.98853
   H      -17.55157       -19.94214        -8.52281
   H      -12.37238       -19.30632        -6.63903
*
