# ORCA input file
# SCF done       -243.331146338696          0.000996280144
! CAM-B3LYP def2-SVP def2/J RIJCOSX Grid4 TightSCF
%maxcore 5000
%tddft
    Mode sTDDFT
    Ethresh 5.0
    maxcore 5000
end

%pal
  nprocs 6
  end
* xyz 0 1
   C        1.10793        -1.96916         0.38928
   S        1.34060        -3.22084         1.52696
   C       -0.04745        -4.12335         0.96970
   C       -0.64978        -3.42608        -0.09659
   C        0.01166        -2.19870        -0.41929
   N       -0.48648        -1.38854        -1.37836
   C       -1.56060        -1.78115        -2.00651
   C       -2.14216        -0.86621        -3.03755
   C       -1.42780         0.48854        -3.09467
   O       -1.94011         1.31367        -4.10928
   C       -2.16448        -3.05998        -1.73812
   C       -3.34582        -3.57199        -2.50426
   N       -3.43254        -5.00828        -2.44203
   N       -1.71765        -3.83363        -0.78069
   C       -0.49296        -5.34752         1.45556
   C        0.10150        -6.05881         2.47301
   C       -0.29928        -7.28787         3.00056
   C       -1.27247        -8.25929         2.60813
   N       -2.32314        -8.21636         1.68025
   O       -2.89037        -9.26929         1.43839
   O       -2.66386        -7.15254         1.17809
   C       -1.07335        -9.42376         3.37085
   C       -0.01733        -9.22526         4.24165
   C        0.47402        -7.91950         4.06191
   C        1.47417        -7.33738         4.87407
   C        1.54755        -6.06011         5.41387
   C        2.55465        -6.03144         6.39263
   C        3.15007        -7.28226         6.47888
   N        4.19758        -7.61279         7.34293
   O        4.61902        -6.74014         8.08399
   O        4.62832        -8.76005         7.32430
   C        2.55981        -8.12788         5.47464
   C        3.01735        -9.32782         5.00911
   C        2.64025        -9.86103         3.75307
   C        2.65902       -11.16438         3.34806
   C        2.23134       -11.62954         2.03510
   N        1.88716       -10.84716         0.92356
   O        1.86672        -9.62677         1.03627
   O        1.61492       -11.43056        -0.10999
   C        2.16117       -13.00246         2.05839
   C        2.52313       -13.45236         3.35471
   C        2.85294       -12.37388         4.13785
   C        3.24561       -12.45919         5.52562
   C        4.47060       -11.96955         6.13912
   C        4.47851       -12.28534         7.45495
   C        3.24392       -12.97340         7.73765
   N        2.82782       -13.47498         8.87481
   O        1.54140       -14.05514         8.88542
   O        3.40357       -13.53537         9.93495
   C        2.51135       -13.06985         6.50397
   C        1.19019       -13.74592         6.48516
   C        0.60707       -13.61529         7.90123
   C       -0.57287       -14.51620         7.97571
   C       -0.57210       -15.70046         7.16852
   N        0.37728       -16.02528         6.32059
   O        0.48742       -17.04475         5.67658
   O        1.41638       -15.10954         6.12838
   C       -1.76477       -16.44754         7.47328
   C       -2.42885       -15.76182         8.43007
   C       -1.69434       -14.55114         8.77524
   C       -2.13693       -13.56918         9.71890
   C       -2.03688       -12.19682         9.58863
   C       -2.69519       -11.58913        10.66807
   C       -3.21418       -12.57200        11.50372
   N       -3.96398       -12.22276        12.63362
   O       -4.61853       -13.07331        13.22363
   O       -3.95447       -11.04816        12.96666
   C       -2.84904       -13.85921        10.96339
   C       -2.88940       -15.14797        11.46637
   C       -3.48178       -15.61099        12.63398
   C       -3.45187       -16.93327        13.02984
   S       -2.66383       -18.23833        12.16564
   C       -3.15859       -19.43965        13.30964
   C       -3.91476       -18.85404        14.33957
   C       -4.07930       -17.45360        14.18965
   N       -4.77524       -16.73013        15.06923
   C       -5.30726       -17.36655        16.08727
   C       -6.09762       -16.56294        17.06147
   C       -6.12485       -15.07844        16.70461
   O       -6.91698       -14.42232        17.67019
   C       -5.13589       -18.78153        16.24733
   C       -5.73783       -19.51906        17.41724
   N       -5.48225       -20.94057        17.44559
   N       -4.45576       -19.50188        15.38817
   C       -2.83158       -20.81942        13.20051
   C       -2.10588       -21.35702        12.21348
   H        1.75058        -1.11173         0.38862
   H       -3.20633        -0.71813        -2.82410
   H       -2.07021        -1.34031        -4.02107
   H       -0.37427         0.33776        -3.33383
   H       -1.48965         0.97817        -2.11401
   H       -2.86001         1.52507        -3.91425
   H       -3.27497        -3.27299        -3.55652
   H       -4.23393        -3.06001        -2.08428
   H       -3.14313        -5.35378        -1.53366
   H       -4.35663        -5.34989        -2.66794
   H       -1.38750        -5.72518         0.97796
   H        0.99335        -5.63259         2.91882
   H       -1.67791       -10.30675         3.28224
   H        0.31084        -9.91524         4.99607
   H        0.87938        -5.24653         5.20285
   H        2.82216        -5.18624         6.99968
   H        3.75636        -9.84786         5.60573
   H        2.31998        -9.14262         3.00534
   H        1.86723       -13.62458         1.23384
   H        2.55806       -14.47944         3.66582
   H        5.26055       -11.48322         5.59944
   H        5.23408       -12.06715         8.18197
   H        0.49884       -13.30094         5.75463
   H        0.36131       -12.56316         8.09198
   H       -2.04443       -17.36173         6.98877
   H       -3.38677       -16.01491         8.84262
   H       -1.59654       -11.66701         8.76552
   H       -2.81026       -10.53348        10.82893
   H       -2.37331       -15.89253        10.86907
   H       -4.03179       -14.93872        13.27996
   H       -5.68379       -16.68028        18.06664
   H       -7.12530       -16.93519        17.10111
   H       -6.54020       -14.94879        15.69750
   H       -5.10104       -14.68314        16.69991
   H       -6.95102       -13.48541        17.45302
   H       -6.82260       -19.36312        17.41035
   H       -5.35440       -19.08059        18.34532
   H       -4.48243       -21.11170        17.47172
   H       -5.83416       -21.37158        16.59711
   H       -3.22497       -21.43067        14.00194
   H       -1.70974       -20.75254        11.41383
   H       -1.89108       -22.40976        12.18343
*
