# ORCA input file
# SCF done       -211.131527327582          0.000516553171
! CAM-B3LYP def2-SVP def2/J RIJCOSX Grid4 TightSCF
%maxcore 5000
%tddft
    Mode sTDDFT
    Ethresh 5.0
    maxcore 5000
end

%pal
  nprocs 6
  end
* xyz 0 1
   C        0.49572        -0.73536        -0.44301
   C        1.33042         0.35029        -0.23581
   C        2.68954         0.20732        -0.52244
   C        3.56363         1.30224        -0.30871
   N        4.26432         2.18979        -0.13034
   C        3.21015        -1.00514        -1.01453
   C        4.59319        -1.11799        -1.29560
   N        5.70950        -1.22950        -1.52524
   C        2.36572        -2.09752        -1.21792
   C        1.02687        -1.94452        -0.92755
   C       -0.04899        -2.95615        -1.04280
   O        0.09726        -4.10268        -1.40353
   C       -1.27194        -2.28519        -0.54748
   C       -0.94324        -0.90507        -0.24376
   C       -1.81953         0.09411         0.08742
   C       -1.43595         1.42707         0.35100
   N       -1.18181         2.52176         0.58180
   C       -3.22132        -0.05239         0.17548
   N       -4.36651        -0.09230         0.24442
   C       -2.46202        -2.88631        -0.22804
   C       -2.92263        -4.17531        -0.54951
   C       -2.52569        -5.08504        -1.52441
   C       -3.27764        -6.24868        -1.48994
   C       -4.26425        -6.24515        -0.47462
   S       -4.28827        -4.78882         0.39733
   C       -4.92318        -7.49710        -0.48167
   C       -4.36376        -8.28832        -1.50475
   C       -3.32707        -7.52638        -2.18195
   C       -2.57186        -7.93405        -3.24134
   C       -2.71343        -9.22236        -3.80137
   N       -2.82358       -10.27162        -4.25063
   C       -1.61593        -7.10061        -3.86275
   N       -0.85307        -6.43079        -4.39431
   C       -4.92569        -9.55729        -1.57399
   C       -5.90000        -9.74445        -0.60587
   S       -6.13626        -8.32108         0.39015
   C       -6.61505       -10.96114        -0.38160
   C       -7.53721       -11.15400         0.64157
   F       -7.83317       -10.12946         1.46210
   C       -8.17400       -12.37407         0.89317
   F       -9.02667       -12.41427         1.93343
   C       -7.95388       -13.52865         0.14920
   C       -7.04784       -13.35363        -0.92756
   C       -6.40071       -12.10974        -1.18509
   N       -5.61614       -12.28949        -2.25679
   N       -5.79599       -13.53322        -2.59407
   N       -6.62027       -14.21959        -1.85706
   C       -5.13823       -14.10495        -3.72722
   C       -8.54270       -14.79828         0.43793
   C       -8.27272       -15.97955        -0.23508
   C       -8.95910       -17.05625         0.31428
   C       -9.76869       -16.68980         1.40826
   S       -9.67526       -15.02442         1.75782
   C      -10.40923       -17.85260         1.90207
   C       -9.99472       -18.95518         1.12210
   C       -9.08000       -18.48720         0.09494
   C       -8.47898       -19.23729        -0.87298
   C       -8.71001       -20.62626        -0.96614
   N       -8.91168       -21.75390        -1.01634
   C       -7.59607       -18.67462        -1.81879
   N       -6.86986       -18.21499        -2.57756
   C      -10.57019       -20.14966         1.52451
   C      -11.43167       -19.98225         2.60322
   S      -11.49175       -18.30187         3.13233
   C      -12.16003       -20.95066         3.31854
   C      -12.44675       -22.24208         2.97869
   C      -12.81663       -23.19073         4.06334
   O      -13.10801       -22.91551         5.20242
   C      -12.69239       -24.53673         3.45755
   C      -12.79381       -25.76846         4.06820
   C      -12.58739       -26.90776         3.28796
   C      -12.27912       -26.78327         1.91960
   C      -12.19027       -25.53072         1.30847
   C      -12.40542       -24.40558         2.08468
   C      -12.40055       -22.98222         1.73748
   C      -12.59220       -22.49200         0.47251
   C      -12.81915       -21.13078         0.18817
   N      -13.02644       -20.03364        -0.07751
   C      -12.68370       -23.30158        -0.68053
   N      -12.77384       -23.91841        -1.64303
   C      -12.04985       -27.95170         1.15085
   N      -11.86033       -28.89172         0.52586
   C      -12.67753       -28.19193         3.87762
   N      -12.75302       -29.22099         4.37399
   H        0.97025         1.29303         0.14401
   H        2.74688        -3.03573        -1.59162
   H       -3.14407        -2.31808         0.39405
   H       -1.72583        -4.89164        -2.21414
   H       -4.65953       -10.33075        -2.26982
   H       -4.27386       -13.49024        -3.96924
   H       -5.81823       -14.12618        -4.58068
   H       -4.84243       -15.12588        -3.49212
   H       -7.60209       -16.01778        -1.07329
   H      -10.34255       -21.10953         1.09857
   H      -12.47784       -20.66793         4.31785
   H      -13.02255       -25.84933         5.11996
   H      -11.94354       -25.46939         0.26021
*
