# ORCA input file
# SCF done       -232.291364188216          0.000405374799
! CAM-B3LYP def2-SVP def2/J RIJCOSX Grid4 TightSCF
%maxcore 5000
%tddft
    Mode sTDDFT
    Ethresh 5.0
    maxcore 5000
end

%pal
  nprocs 6
  end
* xyz 0 1
   C        1.85921         1.27768        -2.14885
   C        2.89350         2.36164        -1.88177
   C        4.23270         2.24045        -2.21873
   C        5.10489         3.28863        -1.97283
   C        4.64534         4.46385        -1.40709
   C        3.30284         4.59582        -1.09162
   C        2.42982         3.55146        -1.32891
   C        1.19379         0.76201        -0.87674
   C        0.06023        -0.03163        -1.00107
   C       -0.56091        -0.54202         0.12418
   C       -0.04722        -0.27485         1.38170
   C        1.08278         0.51380         1.50946
   C        1.70058         1.03622         0.38652
   C        2.35718         0.11696        -2.98719
   C        1.70310         0.16568        -4.19741
   C        0.79074         1.28211        -4.16462
   C       -0.05750         1.71295        -5.14990
   C       -0.15018         1.08825        -6.40650
   N       -0.26312         0.61424        -7.44496
   C       -0.89224         2.82933        -4.94059
   N       -1.57265         3.73680        -4.77211
   O        0.85265         1.89308        -2.97627
   C        1.85953        -0.72087        -5.27135
   N        2.02007        -1.47463        -6.12154
   C        3.28892        -0.83541        -2.52822
   C        3.85983        -0.90177        -1.26084
   C        4.74215        -1.96323        -1.14084
   C        4.86224        -2.71822        -2.32981
   S        3.87175        -2.12772        -3.58268
   C        5.80243        -3.75125        -2.11931
   C        6.27573        -3.65497        -0.79215
   C        5.61898        -2.53736        -0.13391
   C        5.78164        -2.11204         1.15193
   C        6.66724        -2.74622         2.04926
   N        7.38652        -3.25457         2.78304
   C        5.06675        -1.00835         1.66328
   N        4.48110        -0.11187         2.07386
   C        7.22857        -4.61764        -0.49208
   C        7.49085        -5.44346        -1.58006
   S        6.53426        -5.03158        -2.99085
   C        8.43486        -6.49950        -1.64138
   C        8.61769        -7.23140        -2.83883
   C        9.60269        -8.25941        -2.96401
   N        9.73954        -8.90940        -4.13218
   C        8.96577        -8.59150        -5.13333
   C        7.99312        -7.57904        -5.00976
   N        7.83819        -6.92769        -3.89032
   C       10.46288        -8.61547        -1.89793
   C       10.26036        -7.91612        -0.68725
   C        9.26327        -6.87550        -0.56105
   N        9.25942        -6.35126         0.66672
   S       10.37120        -7.07707         1.56191
   N       10.92693        -8.09204         0.45579
   C       11.47369        -9.59192        -2.08131
   C       12.41558       -10.00330        -1.14449
   C       13.29512       -10.93745        -1.67049
   C       13.01758       -11.25017        -3.01867
   S       11.66887       -10.38645        -3.63224
   C       13.98710       -12.17503        -3.46234
   C       14.88410       -12.44771        -2.40415
   C       14.46012       -11.69266        -1.23549
   C       15.01790       -11.69646         0.00772
   C       16.12601       -12.50491         0.34498
   N       17.01126       -13.16907         0.64134
   C       14.50799       -10.90166         1.05759
   N       14.10277       -10.25581         1.91369
   C       15.91035       -13.30636        -2.77086
   C       15.80623       -13.71027        -4.09831
   S       14.39215       -13.01006        -4.88928
   C       16.68658       -14.54966        -4.81237
   C       17.91171       -15.03832        -4.41657
   C       18.40847       -15.89330        -5.46730
   C       19.59263       -16.57900        -5.51948
   C       20.55495       -16.53977        -4.49412
   N       21.37397       -16.54656        -3.69133
   C       19.90479       -17.37868        -6.63795
   N       20.15864       -18.03232        -7.54524
   O       17.52044       -15.96159        -6.46756
   C       16.38956       -15.11803        -6.18467
   C       16.35288       -14.09674        -7.30994
   C       16.05432       -14.54779        -8.59089
   C       16.07332       -13.67010        -9.65838
   C       16.39872       -12.33843        -9.45830
   C       16.72609       -11.89420        -8.19012
   C       16.71558       -12.77130        -7.11830
   C       15.13598       -15.98146        -6.09411
   C       15.20993       -17.18901        -5.41092
   C       14.08809       -17.98677        -5.27901
   C       12.87973       -17.57912        -5.81718
   C       12.80063       -16.37265        -6.49055
   C       13.92247       -15.57406        -6.63102
   C       18.60521       -14.74513        -3.23352
   N       19.15321       -14.46656        -2.26528
   H        4.61046         1.33815        -2.67525
   H        6.14712         3.18265        -2.23413
   H        5.32920         5.27774        -1.21997
   H        2.93329         5.51395        -0.66134
   H        1.38081         3.64974        -1.09429
   H       -0.34678        -0.24768        -1.97899
   H       -1.44479        -1.15210         0.01489
   H       -0.52849        -0.67886         2.25939
   H        1.49461         0.72609         2.48362
   H        2.57603         1.65713         0.50513
   H        3.62836        -0.20272        -0.47989
   H        7.73220        -4.74023         0.44923
   H        9.10681        -9.13847        -6.05424
   H        7.34460        -7.30559        -5.82933
   H       12.43061        -9.60994        -0.14482
   H       16.70176       -13.63373        -2.12130
   H       15.81738       -15.58967        -8.74415
   H       15.83915       -14.02874       -10.64906
   H       16.41122       -11.65249       -10.29170
   H       17.00245       -10.86305        -8.02945
   H       17.00153       -12.41257        -6.13999
   H       16.14816       -17.51767        -4.98770
   H       14.16090       -18.92616        -4.75259
   H       12.00349       -18.20080        -5.71317
   H       11.86245       -16.04827        -6.91480
   H       13.85042       -14.63953        -7.16670
*
