# ORCA input file
# SCF done       -165.049954443340          0.000524119636
! CAM-B3LYP def2-SVP def2/J RIJCOSX Grid4 TightSCF
%maxcore 5000
%tddft
    Mode sTDDFT
    Ethresh 5.0
    maxcore 5000
end

%pal
  nprocs 6
  end
* xyz 0 1
   C        1.02727         1.62026         0.48831
   C       -0.14610         1.40838        -0.17092
   C       -0.33690         1.07875        -1.60707
   O        0.45403         1.30267        -2.48977
   O       -1.53860         0.53343        -1.80641
   C       -1.86651         0.21422        -3.15120
   C       -1.34452         1.58019         0.55608
   N       -2.30797         1.72828         1.16050
   C        2.36606         1.44996         0.05832
   C        2.90968         0.87339        -1.07912
   C        4.29895         0.89613        -1.06812
   C        4.83512         1.50682         0.08685
   S        3.62249         2.02107         1.16349
   C        6.24353         1.51943        -0.02377
   C        6.60637         0.91487        -1.24611
   C        5.39560         0.45857        -1.91597
   C        5.31392        -0.30066        -3.04398
   C        6.45621        -0.78464        -3.72118
   N        7.36553        -1.23017        -4.25741
   C        4.07996        -0.74074        -3.57323
   N        3.09198        -1.12638        -4.00772
   C        7.97532         0.92494        -1.47537
   C        8.66646         1.51753        -0.42334
   S        7.59821         2.06558         0.86151
   C       10.06019         1.69581        -0.34680
   C       10.98738         1.47724        -1.37628
   C       12.33717         1.74559        -0.96796
   N       13.36837         1.57885        -1.79451
   C       13.09174         1.19139        -3.02102
   C       14.23728         0.97352        -3.93985
   O       15.38817         1.14862        -3.59953
   C       13.87041         0.51978        -5.29236
   C       12.60841         0.36934        -5.70751
   C       11.43148         0.64864        -4.86455
   O       10.30064         0.63087        -5.29656
   C       11.74177         0.98639        -3.45010
   N       10.71967         1.11314        -2.63270
   C       12.44629         2.18353         0.35649
   S       10.87588         2.25129         1.08772
   C       13.65326         2.52360         0.98943
   C       13.85014         2.95420         2.29580
   C       15.19252         3.19927         2.55271
   C       16.01695         2.95400         1.43285
   S       15.14506         2.41755         0.06534
   C       17.35636         3.24121         1.79783
   C       17.37692         3.66454         3.14134
   C       16.02147         3.64771         3.66086
   C       15.61987         3.98331         4.92094
   C       16.53728         4.39367         5.91059
   N       17.28820         4.71688         6.71497
   C       14.26535         3.93136         5.31234
   N       13.16438         3.88478         5.62849
   C       18.65340         3.98688         3.59178
   C       19.61046         3.82292         2.60662
   S       18.91186         3.23034         1.10437
   C       21.01408         4.05004         2.66979
   C       21.65040         4.75786         3.63158
   C       20.94866         5.56315         4.69254
   O       20.27606         6.52933         4.44760
   O       21.19969         5.08414         5.90375
   C       20.60026         5.76863         7.00335
   C       23.05188         4.86381         3.65355
   N       24.19468         4.96190         3.68927
   H        0.93265         1.95590         1.51669
   H       -1.07660        -0.39096        -3.60117
   H       -1.98630         1.12842        -3.73620
   H       -2.80160        -0.33749        -3.11050
   H        2.31148         0.48052        -1.87915
   H        8.47991         0.54892        -2.34730
   H       14.70632         0.32313        -5.95011
   H       12.38157         0.04907        -6.71537
   H       13.04333         3.07413         2.99663
   H       18.87779         4.30179         4.59230
   H       21.60740         3.60895         1.87800
   H       19.54950         5.48357         7.09214
   H       20.66905         6.84746         6.85615
   H       21.15262         5.46164         7.88724
*
