# ORCA input file
# SCF done       -256.144385202822          0.000287709170
! CAM-B3LYP def2-SVP def2/J RIJCOSX Grid4 TightSCF
%maxcore 5000
%tddft
    Mode sTDDFT
    Ethresh 5.0
    maxcore 5000
end

%pal
  nprocs 6
  end
* xyz 0 1
   C        0.51249        -4.16751         7.05015
   C       -0.71614        -3.56643         7.00095
   C       -0.83242        -2.22405         6.61142
   C        0.28045        -1.50183         6.27604
   C        1.56106        -2.08899         6.31735
   C        2.71544        -1.34376         5.98155
   C        3.94290        -1.94590         6.03561
   C        4.05176        -3.31550         6.41518
   C        2.95626        -4.05585         6.75138
   C        1.67812        -3.45285         6.71174
   C        5.46782        -3.72425         6.35598
   O        5.94808        -4.79498         6.65260
   C        6.19016        -2.55197         5.79077
   C        5.28501        -1.42824         5.78456
   C        5.63346        -0.09942         5.80071
   C        6.96336         0.35813         5.83751
   N        8.02810         0.78268         5.91163
   C        4.70655         0.95835         5.86823
   N        3.99422         1.85885         5.89626
   C        7.46442        -2.72041         5.32667
   C        8.18663        -1.93071         4.41202
   C        7.72332        -1.00677         3.47665
   C        8.71793        -0.45398         2.69038
   C        9.98712        -0.95414         3.04431
   S        9.92144        -2.12787         4.28958
   C       11.07808        -0.41453         2.33605
   C       10.75021         0.56150         1.37281
  Si        8.89810         0.84388         1.35200
   C        8.13840         0.37402        -0.28503
   C        6.92497        -0.31410        -0.36245
   C        6.34089        -0.60641        -1.58061
   C        6.95647        -0.21375        -2.75721
   C        8.16059         0.46857        -2.70651
   C        8.74199         0.75664        -1.48639
   C        8.33905         2.52015         1.94315
   C        7.87303         3.48590         1.04569
   C        7.44657         4.72478         1.48469
   C        7.47086         5.02866         2.83603
   C        7.92685         4.08724         3.74367
   C        8.35861         2.85079         3.30288
   C       11.88357         1.01267         0.71774
   C       13.06340         0.41213         1.15266
   S       12.76452        -0.73867         2.43155
   C       14.37214         0.63568         0.65983
   C       15.49351         0.00133         1.24459
   C       16.83549         0.20533         0.76460
   N       17.85261        -0.41705         1.36923
   C       17.62635        -1.21074         2.38830
   C       16.29096        -1.41909         2.86087
   N       15.28153        -0.81386         2.28232
   C       16.04411        -2.28336         3.95560
   N       15.87761        -2.98990         4.84161
   C       18.71617        -1.86536         3.01307
   N       19.57191        -2.41550         3.53925
   C       17.12891         1.03752        -0.34110
   C       16.00829         1.66696        -0.93727
   C       14.66134         1.47755        -0.44230
   N       13.77557         2.16881        -1.15874
   S       14.53825         2.97019        -2.32240
   N       16.03208         2.48639        -1.98776
   C       18.45821         1.20409        -0.80222
   C       18.88300         1.93886        -1.90753
   C       20.25212         1.90369        -2.11156
   C       20.89173         1.13038        -1.12196
   S       19.79992         0.44621         0.01911
   C       22.29344         1.04597        -1.23284
   C       22.86379         1.73093        -2.32796
  Si       21.51568         2.56667        -3.32467
   C       21.32664         1.85966        -5.03786
   C       20.10228         1.37726        -5.50762
   C       19.97022         0.88957        -6.79446
   C       21.06251         0.87132        -7.64530
   C       22.28721         1.34165        -7.20046
   C       22.41622         1.82916        -5.91399
   C       21.66711         4.42508        -3.32247
   C       21.47929         5.16972        -4.48952
   C       21.59964         6.54674        -4.48864
   C       21.91229         7.21508        -3.31687
   C       22.10284         6.49819        -2.14678
   C       21.98120         5.12207        -2.15102
   C       24.24008         1.59722        -2.35411
   C       24.75290         0.82799        -1.31140
   S       23.45958         0.26309        -0.25645
   C       26.06283         0.47688        -0.94526
   C       27.26083         0.64286        -1.59383
   C       28.53489         0.25277        -1.01420
   C       28.79399        -0.00254         0.30872
   C       30.06380        -0.36231         0.80558
   N       31.06807        -0.66484         1.27316
   C       27.86865         0.10932         1.36774
   N       27.19141         0.20661         2.29062
   C       29.53669         0.27131        -2.07363
   C       28.92544         0.77543        -3.25481
   C       29.61954         0.92656        -4.42004
   C       30.98485         0.56497        -4.45959
   C       31.75354         0.69666        -5.63256
   C       33.07339         0.33520        -5.64842
   C       33.68214        -0.17331        -4.49153
   C       32.96324        -0.31342        -3.33566
   C       31.60222         0.04956        -3.28395
   C       30.85721        -0.09049        -2.09001
   C       27.50553         1.07019        -2.99089
   O       26.72658         1.54894        -3.79197
   H        0.60827        -5.20100         7.34955
   H       -1.60447        -4.12198         7.26198
   H       -1.80881        -1.76412         6.57913
   H        0.19645        -0.46673         5.97870
   H        2.59801        -0.31448         5.67976
   H        3.06142        -5.08956         7.04546
   H        7.95039        -3.63277         5.65956
   H        6.67750        -0.78262         3.35765
   H        6.43733        -0.62356         0.55076
   H        5.40249        -1.14076        -1.61431
   H        6.50043        -0.43969        -3.70987
   H        8.64620         0.77636        -3.62137
   H        9.68307         1.28635        -1.45536
   H        7.84119         3.25122        -0.00925
   H        7.08923         5.45464         0.77251
   H        7.13154         5.99451         3.18033
   H        7.94256         4.31324         4.79947
   H        8.70354         2.12286         4.02294
   H       11.88941         1.75734        -0.05654
   H       18.18656         2.47641        -2.52437
   H       19.24579         1.38607        -4.84884
   H       19.01327         0.52159        -7.13575
   H       20.96039         0.48996        -8.65078
   H       23.14347         1.32701        -7.85886
   H       23.37530         2.19179        -5.57413
   H       21.23878         4.65339        -5.40815
   H       21.45127         7.10101        -5.40410
   H       22.00897         8.29086        -3.31520
   H       22.34888         7.01507        -1.23058
   H       22.13376         4.56894        -1.23474
   H       24.87641         2.03561        -3.09992
   H       26.11311        -0.03256         0.01058
   H       29.13231         1.31585        -5.30181
   H       31.27913         1.08876        -6.52047
   H       33.65525         0.43886        -6.55218
   H       34.72449        -0.45359        -4.52058
   H       33.42784        -0.70310        -2.44176
   H       31.35283        -0.48847        -1.21903
*
