# ORCA input file
# SCF done       -231.660620207292          0.000985805319
! CAM-B3LYP def2-SVP def2/J RIJCOSX Grid4 TightSCF
%maxcore 5000
%tddft
    Mode sTDDFT
    Ethresh 5.0
    maxcore 5000
end

%pal
  nprocs 6
  end
* xyz 0 1
   C       -4.17243        -4.46205       -12.23862
   C       -4.04391        -3.12092       -12.46687
   F       -4.03051        -2.64907       -13.71969
   C       -3.92482        -2.21777       -11.39069
   F       -3.80014        -0.90862       -11.64442
   C       -3.93641        -2.66900       -10.10080
   C       -4.06816        -4.04560        -9.83282
   C       -4.18942        -4.95988       -10.91968
   C       -4.32790        -6.34459       -10.67475
   C       -4.35187        -6.80211        -9.38231
   C       -4.22523        -5.88250        -8.30404
   C       -4.08266        -4.54008        -8.51032
   C       -4.27086        -6.61005        -7.02156
   O       -4.11940        -6.13583        -5.91898
   C       -4.43762        -8.04668        -7.38566
   C       -4.50339        -8.14649        -8.83641
   C       -4.74512        -9.28002        -9.56217
   C       -4.97520       -10.56259        -9.01677
   N       -5.19101       -11.63043        -8.65582
   C       -4.82416        -9.31390       -10.97156
   N       -4.89516        -9.40307       -12.11357
   C       -4.37750        -9.07023        -6.50278
   C       -4.42852        -8.93390        -5.06264
   C       -3.52384        -9.66443        -4.28884
   F       -2.62484       -10.40869        -4.97026
   C       -3.47119        -9.59273        -2.90082
   O       -2.54875       -10.15227        -2.09905
   C       -1.87509       -11.33357        -2.50342
   C       -4.43729        -8.77252        -2.27481
   C       -5.34701        -8.04625        -3.04710
   C       -5.39073        -8.11059        -4.43530
   O       -6.30346        -7.54681        -5.24706
   C       -7.18837        -6.55548        -4.76189
   F       -6.25171        -7.29909        -2.36714
   C       -4.52728        -8.74760        -0.83039
   C       -4.45769        -9.84871         0.02215
   C       -4.63955        -9.48733         1.40577
   N       -4.52421       -10.39820         2.37478
   C       -4.31651       -11.64031         2.01231
   C       -4.24087       -12.64926         3.09783
   O       -4.40096       -12.36676         4.26648
   C       -4.00924       -14.03340         2.64458
   C       -3.90434       -14.38284         1.35864
   C       -3.97664       -13.42516         0.23906
   O       -3.80451       -13.76400        -0.91257
   C       -4.22042       -12.01412         0.63286
   N       -4.28881       -11.12807        -0.33157
   C       -4.86905        -8.12128         1.58365
   S       -4.79697        -7.30579         0.07340
   C       -5.03903        -7.45451         2.84399
   C       -5.63704        -8.12011         3.91843
   F       -6.36021        -9.22249         3.64150
   C       -5.57388        -7.64612         5.22422
   O       -6.02970        -8.28432         6.31827
   C       -6.40698        -9.65271         6.24929
   C       -5.01993        -6.35843         5.42405
   C       -4.58923        -5.62271         4.30939
   C       -4.54318        -6.14198         3.02610
   O       -4.08673        -5.54013         1.90672
   C       -3.31175        -4.35750         1.98507
   F       -4.14991        -4.36675         4.55054
   C       -4.98605        -5.71139         6.70932
   C       -4.84583        -6.21328         7.95868
   C       -5.21897        -5.34786         9.11901
   O       -5.43724        -4.16057         9.09353
   C       -5.31570        -6.26537        10.27100
   C       -5.74545        -6.00337        11.54006
   C       -5.78636        -7.05540        12.48203
   C       -5.38483        -8.36444        12.08551
   C       -5.43734        -9.41141        13.02792
   C       -5.86444        -9.16966        14.30336
   C       -6.25912        -7.87416        14.69468
   C       -6.22135        -6.83824        13.80409
   F       -6.67423        -7.66677        15.95140
   F       -5.91283       -10.16564        15.19724
   C       -4.93709        -8.60368        10.76617
   C       -4.89594        -7.56661         9.87213
   C       -4.46463        -7.51113         8.47859
   C       -3.66858        -8.43255         7.85476
   C       -3.09335        -8.22955         6.58433
   N       -2.58777        -8.08047         5.56511
   C       -3.27415        -9.65277         8.44331
   N       -2.94075       -10.65805         8.88462
   H       -4.26361        -5.13916       -13.07353
   H       -3.84374        -1.96528        -9.28846
   H       -4.41048        -7.01024       -11.51852
   H       -3.98705        -3.86465        -7.67371
   H       -4.22950       -10.08030        -6.86496
   H       -1.35516       -11.68017        -1.61224
   H       -1.14769       -11.14010        -3.29452
   H       -2.58503       -12.09918        -2.82127
   H       -7.70724        -6.18384        -5.64441
   H       -6.64327        -5.73661        -4.28876
   H       -7.91714        -6.96970        -4.06175
   H       -3.94003       -14.76885         3.43489
   H       -3.74394       -15.41243         1.06742
   H       -6.49963        -9.97213         7.28678
   H       -5.65062       -10.25784         5.74444
   H       -7.36817        -9.77678         5.74757
   H       -2.94843        -4.19020         0.97259
   H       -2.46501        -4.47988         2.66345
   H       -3.91384        -3.50303         2.30070
   H       -5.13519        -4.63459         6.68077
   H       -6.05213        -5.00735        11.82113
   H       -5.13563       -10.40822        12.74639
   H       -6.52702        -5.85269        14.11881
   H       -4.64522        -9.60502        10.49218
*
