# ORCA input file
# SCF done       -199.135750674288          0.000773568408
! CAM-B3LYP def2-SVP def2/J RIJCOSX Grid4 TightSCF
%maxcore 5000
%tddft
    Mode sTDDFT
    Ethresh 5.0
    maxcore 5000
end

%pal
  nprocs 6
  end
* xyz 0 1
   C        0.49211        22.30111         0.55537
   C       -0.34416        22.41724         1.63493
   C       -0.70633        23.64770         2.22389
   N       -1.03912        24.61224         2.75006
   C       -0.95335        21.35182         2.33059
   N       -1.48120        20.54880         2.96028
   C        1.14687        23.41222        -0.12617
   C        2.00474        22.88610        -1.13398
   C        2.75276        23.69205        -1.94279
   C        2.66925        25.09318        -1.78385
   C        1.80982        25.62974        -0.78191
   C        1.05309        24.76844         0.04541
   C        1.72768        27.02967        -0.63718
   C        2.45728        27.86074        -1.44307
   C        3.30360        27.33114        -2.42866
   C        3.40821        25.97667        -2.59476
   C        1.91259        21.41884        -1.13386
   O        2.53352        20.65526        -1.84668
   C        0.91318        21.07311        -0.10223
   C        0.41293        19.82873         0.14841
   C        0.70479        18.57997        -0.44662
   C        0.01144        17.43607        -0.09140
   C        0.40520        16.28864        -0.79579
   C        1.45649        16.57850        -1.71244
   S        1.90904        18.25852        -1.67932
   C        2.00377        15.60755        -2.52319
   C        1.49180        14.31226        -2.43929
   C        0.43204        14.03050        -1.52490
   C       -0.10835        14.98727        -0.70481
   S       -0.05891        12.35934        -1.62293
   C        1.13760        12.05632        -2.87434
   C        1.87271        13.17480        -3.18146
   C        1.25736        10.78366        -3.47563
   C        2.17278        10.39812        -4.46309
   C        1.99566         9.03310        -4.88215
   N        2.77222         8.48176        -5.81612
   C        3.70887         9.24142        -6.33794
   C        4.58004         8.63256        -7.37442
   O        4.45181         7.48775        -7.75185
   C        5.62062         9.52615        -7.91571
   C        5.78400        10.79618        -7.53204
   C        4.94237        11.45744        -6.52021
   O        5.10160        12.61688        -6.19974
   C        3.88610        10.60163        -5.92490
   N        3.12776        11.15769        -5.00573
   C        0.94917         8.38259        -4.22359
   S        0.20812         9.45853        -3.08533
   C        0.51740         7.05909        -4.45779
   C       -0.53051         6.40011        -3.86127
   C       -0.71679         5.09448        -4.35752
   C        0.24023         4.76979        -5.36401
   S        1.34245         6.09082        -5.66043
   C        0.24221         3.55361        -6.00470
   C       -0.73776         2.62022        -5.65158
   C       -1.69001         2.94602        -4.64138
   C       -1.68985         4.15995        -3.99403
   S       -2.80068         1.63764        -4.38318
   C       -2.01357         0.67116        -5.63642
   C       -0.94391         1.33317        -6.18796
   C       -2.57541        -0.60779        -5.86779
   C       -2.33640        -1.53794        -6.83712
   C       -3.04958        -2.80739        -6.91737
   C       -3.77232        -3.40904        -5.92139
   C       -4.42226        -4.65381        -6.06430
   N       -4.97709        -5.65759        -6.11549
   C       -3.94165        -2.92220        -4.60714
   N       -4.11543        -2.61916        -3.51305
   C       -2.79526        -3.38127        -8.23230
   C       -1.84321        -2.56327        -8.90207
   C       -1.47706        -1.42345        -8.04468
   O       -0.64515        -0.58030        -8.30684
   C       -1.39217        -2.85718       -10.15666
   C       -1.89208        -4.00154       -10.81673
   C       -2.85685        -4.81843       -10.15922
   C       -3.29905        -4.49186        -8.85684
   C       -3.35598        -5.95316       -10.83076
   C       -2.92229        -6.26884       -12.08948
   C       -1.97045        -5.46516       -12.73482
   C       -1.46632        -4.35577       -12.11205
   H        3.39642        23.26497        -2.69743
   H        0.41100        25.20801         0.79179
   H        1.07567        27.43278         0.12377
   H        2.38638        28.93162        -1.32524
   H        3.87177        28.00167        -3.05585
   H        4.05786        25.56275        -3.35200
   H       -0.35678        19.75550         0.90788
   H       -0.76500        17.43915         0.65393
   H        2.80050        15.83472        -3.21298
   H       -0.90774        14.75958        -0.01786
   H        2.65026        13.16501        -3.92409
   H        6.26004         9.07877        -8.66490
   H        6.56023        11.41771        -7.95802
   H       -1.14567         6.84804        -3.10051
   H        0.96842         3.31994        -6.76631
   H       -2.41810         4.39269        -3.23365
   H       -0.33026         0.90921        -6.96137
   H       -3.35712        -0.85260        -5.15718
   H       -0.66516        -2.22168       -10.64027
   H       -4.03311        -5.12812        -8.38886
   H       -4.08744        -6.56962       -10.32914
   H       -3.31036        -7.14023       -12.59528
   H       -1.63895        -5.72955       -13.72783
   H       -0.73354        -3.73291       -12.60394
*
