# ORCA input file
# SCF done       -174.077560239150          0.000470851521
! CAM-B3LYP def2-SVP def2/J RIJCOSX Grid4 TightSCF
%maxcore 5000
%tddft
    Mode sTDDFT
    Ethresh 5.0
    maxcore 5000
end

%pal
  nprocs 6
  end
* xyz 0 1
   C        1.77941         1.91053         0.42841
   S        1.33435         1.05157        -0.97194
   C        2.55209        -0.15549        -0.71551
   C        3.29582         0.13637         0.43774
   C        2.82513         1.31774         1.10346
   C        3.44449         1.70738         2.32070
   S        2.85205         3.08427         3.25552
   C        4.51783         0.99983         2.79103
   C        4.99685        -0.12960         2.10377
   C        4.39227        -0.57478         0.96203
   C        2.63849        -1.33869        -1.48113
   C        1.89376        -1.68523        -2.56548
   C        1.84371        -3.02621        -3.03474
   S        1.58928        -3.44423        -4.69712
   C        1.74797        -5.12016        -4.33207
   C        1.98464        -5.37056        -3.01835
   C        2.08790        -6.74057        -2.43982
   C        2.03191        -4.16972        -2.24919
   C        2.14619        -4.03191        -0.82994
   C        2.94009        -4.72188         0.02662
   C        3.17318        -4.29739         1.36172
   C        2.63065        -3.20343         1.97227
   C        3.08613        -2.71405         3.21241
   O        4.11037        -3.32564         3.86152
   C        2.71758        -1.59491         3.95074
   C        1.84565        -0.42393         3.96489
   O        1.00299        -0.04421         3.18786
   N        2.21015         0.24493         5.13269
   C        3.24150        -0.34658         5.85840
   O        3.71292         0.08886         6.87712
   C        3.56382        -1.54577         5.08072
   C        4.42621        -2.62966         4.99618
   C        5.50271        -3.06927         5.78838
   C        6.27977        -4.11719         5.36761
   C        7.38552        -4.66706         6.01490
   C        8.13560        -5.66971         5.43110
   C        9.26135        -6.34728         5.94345
   C        9.79120        -7.27764         5.09182
   C        9.11258        -7.37012         3.86078
   S        7.77068        -6.26382         3.81924
   C        9.39950        -8.16834         2.75926
   C       10.42080        -9.12005         2.59863
   C       10.43195        -9.70727         1.36182
   C        9.42565        -9.24026         0.49278
   S        8.44480        -8.04140         1.29960
   C        9.21547        -9.62573        -0.82287
   C        8.21904        -9.08573        -1.62080
   C        7.99937        -9.41435        -2.94946
   C        6.99283        -8.86683        -3.81248
   C        6.01896        -7.94430        -3.48962
   C        5.05821        -7.45684        -4.39503
   N        4.23615        -7.01676        -5.06790
   C        5.80785        -7.36572        -2.22643
   N        5.52283        -6.84015        -1.24264
   C        7.16011        -9.46886        -5.13483
   C        8.23982       -10.38239        -5.08118
   C        8.80269       -10.38590        -3.71218
   O        9.73812       -11.06084        -3.32600
   C        8.64829       -11.11233        -6.16861
   C        7.95719       -10.93184        -7.37297
   C        6.88157       -10.01660        -7.41754
   C        6.46796        -9.27794        -6.31439
   S        6.16772        -9.94544        -9.00125
   C        7.31107       -11.13091        -9.57306
   C        8.18215       -11.55904        -8.62937
  Br        7.24635       -11.69083       -11.36307
   H        1.25303         2.81310         0.66953
   H        1.59603         3.01690         2.81982
   H        4.99241         1.30489         3.71186
   H        5.84495        -0.65947         2.51127
   H        4.75529        -1.45652         0.45785
   H        3.36355        -2.05449        -1.11790
   H        1.29973        -0.94282        -3.08164
   H        1.66745        -5.83494        -5.12640
   H        1.81881        -7.48341        -3.18579
   H        1.42785        -6.83560        -1.57916
   H        3.10478        -6.93913        -2.10886
   H        1.57876        -3.19996        -0.43054
   H        3.54148        -5.54442        -0.32999
   H        3.92516        -4.84860         1.91108
   H        1.85128        -2.61194         1.51776
   H        1.79550         1.12448         5.40706
   H        5.69715        -2.53357         6.70438
   H        6.01602        -4.56053         4.41477
   H        7.67715        -4.30471         6.99080
   H        9.65041        -6.13203         6.92303
   H       10.64960        -7.88450         5.31737
   H       11.11751        -9.35111         3.38441
   H       11.13816       -10.45596         1.05007
   H        9.87473       -10.37310        -1.23983
   H        7.57509        -8.34139        -1.16656
   H        9.47555       -11.80089        -6.09596
   H        5.64202        -8.59231        -6.40241
   H        8.95236       -12.28664        -8.80954
*
