# ORCA input file
# SCF done       -159.695089520429          0.000773944360
! CAM-B3LYP def2-SVP def2/J RIJCOSX Grid4 TightSCF
%maxcore 5000
%tddft
    Mode sTDDFT
    Ethresh 5.0
    maxcore 5000
end

%pal
  nprocs 6
  end
* xyz 0 1
   C       -2.40256        -0.65214        -3.58076
   C       -3.14987        -1.64264        -3.05339
   S       -3.53641        -1.40298        -1.38374
   C       -2.65078         0.08673        -1.37304
   C       -2.09122         0.36564        -2.63291
   C       -1.32127         1.51957        -2.81269
   C       -1.06445         2.38586        -1.76398
   C       -1.64678         2.11950        -0.49761
   C       -2.44046         0.97073        -0.32262
   S       -3.03439         0.83472         1.30269
   C       -2.21121         2.29044         1.74022
   C       -1.52789         2.85050         0.71947
   C       -0.17624         3.51401        -1.98222
   S       -0.53599         5.10736        -1.41221
   C        0.88637         5.72750        -2.15542
   C        1.60032         4.78591        -2.82283
   C        2.89114         5.08777        -3.50942
   C        0.99097         3.49297        -2.73246
   C        1.48278         2.24825        -3.26056
   C        2.24135         2.04433        -4.35704
   C        2.56618         0.74384        -4.85697
   C        1.93999        -0.40806        -4.51392
   C        2.27068        -1.67362        -5.06042
   O        3.31469        -1.81832        -5.92105
   C        1.68405        -2.91212        -4.88206
   C        0.59538        -3.61664        -4.21040
   O       -0.27051        -3.22705        -3.46503
   N        0.74961        -4.93479        -4.63529
   C        1.81492        -5.15789        -5.51094
   O        2.10338        -6.23233        -5.98139
   C        2.41321        -3.84003        -5.67062
   C        3.41964        -3.12563        -6.30492
   C        4.43967        -3.46089        -7.21377
   C        4.67323        -4.72873        -7.67175
   C        5.65115        -5.10427        -8.60678
   C        6.50436        -4.30326        -9.33730
   C        7.45557        -4.77046       -10.28050
   C        8.15970        -3.79090       -10.91660
   C        7.80775        -2.48619       -10.51382
   S        6.55913        -2.55369        -9.29045
   C        8.28235        -1.26163       -10.94187
   C        9.26573        -0.97944       -11.91538
   C        9.46287         0.35165       -12.10348
   C        8.65258         1.20236       -11.29389
   S        7.63895         0.21770       -10.25830
   C        8.69657         2.56611       -11.39824
   C        7.98146         3.60496       -10.73802
   C        8.18350         4.93557       -11.16219
   O        9.08165         5.07996       -12.17411
   C        9.05238         6.18095       -13.05858
   C        7.51720         6.03110       -10.53269
   O        7.84009         7.27700       -10.98925
   C        7.21270         8.39467       -10.40846
   C        6.61761         5.82744        -9.51118
   C        6.38160         4.52097        -9.07047
   C        7.06619         3.40751        -9.66914
   N        6.72319         2.26235        -9.09843
   S        5.64383         2.54462        -7.93233
   N        5.56143         4.14691        -8.08936
   H       -2.05914        -0.63489        -4.59909
   H       -3.50656        -2.53008        -3.53693
   H       -0.93193         1.73525        -3.79623
   H       -2.28891         2.64036         2.75085
   H       -0.95468         3.75322         0.82227
   H        1.11575         6.76941        -2.04688
   H        3.27845         6.04515        -3.16811
   H        2.75087         5.14528        -4.58861
   H        3.62477         4.31251        -3.29791
   H        1.15182         1.37854        -2.70768
   H        2.61331         2.87712        -4.93405
   H        3.34226         0.69320        -5.60998
   H        1.11789        -0.42794        -3.81426
   H        0.13721        -5.67748        -4.33077
   H        5.04665        -2.62569        -7.52462
   H        4.05132        -5.52359        -7.28107
   H        5.74001        -6.16495        -8.80480
   H        7.58620        -5.82306       -10.46186
   H        8.91336        -3.97265       -11.66206
   H        9.79052        -1.75415       -12.44609
   H       10.16503         0.76652       -12.80581
   H        9.39583         2.93225       -12.13897
   H        9.51376         7.06713       -12.61882
   H        8.03503         6.41918       -13.37538
   H        9.63464         5.86126       -13.92388
   H        7.62019         9.25846       -10.93166
   H        7.44205         8.47480        -9.34172
   H        6.12784         8.36430       -10.54844
   H        6.10242         6.63588        -9.02362
*
