# ORCA input file
# SCF done       -153.838964660082          0.000306861728
! CAM-B3LYP def2-SVP def2/J RIJCOSX Grid4 TightSCF
%maxcore 5000
%tddft
    Mode sTDDFT
    Ethresh 5.0
    maxcore 5000
end

%pal
  nprocs 6
  end
* xyz 0 1
   N        3.63348         1.54686        -0.51748
   C        3.63747         1.52444         0.93410
   C        4.62274         2.54819         1.48207
   C        4.99245         2.28957         2.94334
   N        6.00662         3.26010         3.31201
   S        7.51094         2.52785         2.92628
   N        7.00806         0.96496         3.44696
   C        5.59194         0.84404         3.13961
   C        5.42505        -0.00926         1.88025
   C        3.97982         0.07659         1.39864
   N        3.75019        -0.77230         0.24511
   S        2.94888         0.10613        -1.05132
   C        3.72039        -2.10909         0.29826
   O        4.07401        -2.75063         1.43940
   C        3.40949        -3.03353        -0.67546
   C        2.95352        -3.20458        -2.04033
   O        2.66173        -2.40447        -2.89553
   N        2.90517        -4.59606        -2.19579
   C        3.27544        -5.33543        -1.07916
   O        3.29714        -6.53912        -1.01530
   C        3.60192        -4.31299        -0.08129
   C        4.01322        -4.11630         1.21325
   C        4.36416        -5.04650         2.22469
   C        4.73330        -4.72674         3.48417
   C        5.10663        -5.72344         4.44011
   C        5.44641        -5.53810         5.72624
   C        5.44276        -4.22356         6.44053
   C        5.81206        -6.72851         6.58455
   N        4.83499        -6.98858         7.61742
   C        3.62881        -7.53709         7.35847
   C        2.63333        -7.67011         8.27332
   C        1.40440        -8.29295         7.98726
   C        0.40562        -8.50659         8.89825
   C       -0.84905        -9.12156         8.66736
   C       -1.63588        -9.22924         9.77202
   C       -1.04977        -8.70930        10.95005
   S        0.53432        -8.05695        10.60028
   C       -1.57770        -8.70175        12.22458
   C       -2.83033        -9.19452        12.65179
   C       -3.05088        -9.06285        13.98774
   C       -1.98254        -8.45931        14.70067
   S       -0.68553        -8.05183        13.59278
   C       -1.94496        -8.23036        16.05003
   C       -0.89556        -7.65254        16.78556
   S        0.61990        -7.07763        16.10935
   C        1.25706        -6.57830        17.62987
   C        0.35664        -6.83395        18.63614
   C       -0.84536        -7.43454        18.15174
   O       -1.70925        -7.67399        19.16344
   C       -1.07385        -7.23461        20.28305
   N       -1.74934        -7.35955        21.51502
   O       -1.15774        -6.95736        22.50244
   O       -2.85901        -7.85138        21.51477
   C        0.17206        -6.71728        20.04019
   H        4.56413         1.69343        -0.90002
   H        2.61707         1.76229         1.25422
   H        4.20186         3.54944         1.39715
   H        5.54553         2.53399         0.89903
   H        4.11105         2.42522         3.57670
   H        5.96636         3.52543         4.29137
   H        7.20803         0.83463         4.43322
   H        5.08275         0.34733         3.97290
   H        5.68591        -1.04084         2.11486
   H        6.11168         0.33909         1.10888
   H        3.31286        -0.22565         2.21763
   H        2.61784        -5.02997        -3.06103
   H        4.31502        -6.07859         1.90705
   H        4.75211        -3.68640         3.77353
   H        5.12325        -6.73403         4.04988
   H        5.44729        -3.38848         5.74787
   H        6.31457        -4.14214         7.08866
   H        4.55210        -4.14042         7.06567
   H        6.77632        -6.55523         7.07147
   H        5.89828        -7.62212         5.95999
   H        4.94617        -6.51758         8.50208
   H        3.50493        -7.91890         6.35434
   H        2.78091        -7.29873         9.27898
   H        1.23320        -8.63545         6.97487
   H       -1.12665        -9.46780         7.68698
   H       -2.61551        -9.67227         9.77695
   H       -3.53182        -9.63288        11.96462
   H       -3.94455        -9.38286        14.49360
   H       -2.80617        -8.52664        16.63403
   H        2.23121        -6.14049        17.68356
   H        0.84000        -6.31828        20.77486
*
