# ORCA input file
# SCF done       -185.979651172039          0.000727432462
! CAM-B3LYP def2-SVP def2/J RIJCOSX Grid4 TightSCF
%maxcore 5000
%tddft
    Mode sTDDFT
    Ethresh 5.0
    maxcore 5000
end

%pal
  nprocs 6
  end
* xyz 0 1
   C       -4.44442         0.49084         4.33838
   C       -3.22818         0.40195         4.97513
   C       -2.96068        -0.46656         6.05195
   N       -2.67717        -1.15020         6.93039
   C       -2.07892         1.15205         4.65871
   N       -1.10267         1.72719         4.46219
   C       -5.62817        -0.29496         4.68308
   C       -6.68221         0.07017         3.81016
   C       -7.93119        -0.49497         3.87598
   C       -8.15335        -1.47282         4.85246
   C       -7.09618        -1.83156         5.72008
   C       -5.83158        -1.25697         5.65306
   S       -7.58399        -3.05989         6.84848
   C       -9.18010        -3.07471         6.14741
   C       -9.34191        -2.20513         5.12213
  Br      -10.48311        -4.23629         6.83465
   C       -6.19352         1.10232         2.87634
   O       -6.84497         1.64167         1.99484
   C       -4.79746         1.34157         3.22669
   C       -3.94902         2.23394         2.59924
   C       -4.15462         3.06549         1.50670
   S       -5.62509         3.23014         0.58400
   C       -4.93130         4.39708        -0.48308
   C       -3.56898         4.63843        -0.17629
   C       -3.13694         3.89950         0.95931
   C       -1.81338         4.01802         1.40903
   C       -0.94723         4.82840         0.72181
   F        0.32038         4.95571         1.13751
   C       -1.35851         5.51142        -0.43593
   F       -0.46900         6.25773        -1.11473
   C       -2.64666         5.41863        -0.89051
   C       -5.75103         4.96578        -1.47740
   C       -5.55035         6.16746        -2.08922
   C       -6.35897         6.70063        -3.10895
   C       -6.26267         8.00633        -3.62703
   C       -7.03064         8.11814        -4.80745
   C       -7.74448         6.94762        -5.13450
   S       -7.44779         5.66526        -4.02160
   C       -8.50686         7.23888        -6.26772
   C       -8.24300         8.55540        -6.59215
   N       -7.36591         9.10277        -5.70364
   C       -6.84359        10.44391        -5.76224
   C       -5.51921        10.50266        -6.52186
   C       -8.98396         9.12748        -7.74763
   C       -9.59418         7.91885        -8.47228
   S       -9.66337         6.46783        -7.32656
   C       -5.53696         9.06831        -3.00137
   C       -5.49674         9.33198        -1.66206
   C       -4.79250        10.40476        -1.04546
   C       -5.03440        10.54680         0.28366
   C       -5.94255         9.59576         0.80805
   S       -6.46573         8.49403        -0.44927
   C       -6.42075         9.48761         2.09552
   C       -6.15164        10.32372         3.20573
   C       -6.83473         9.98170         4.32909
   C       -7.68116         8.84955         4.17877
   S       -7.55165         8.22349         2.54394
   C       -8.50558         8.33300         5.13951
   C       -9.35778         7.21902         5.02428
   S       -9.45722         6.15181         3.63290
   C      -10.66638         5.15233         4.32901
   C      -11.00601         5.60000         5.58473
   C      -10.26229         6.75754         5.96567
   O      -10.62389         7.18223         7.19384
   C      -11.58891         6.31271         7.60050
   N      -12.17061         6.52615         8.87357
   O      -13.03697         5.74077         9.20996
   O      -11.77401         7.46427         9.53033
   C      -11.86816         5.33459         6.68424
   H       -8.71215        -0.19621         3.19443
   H       -5.06050        -1.56707         6.33801
   H      -10.26000        -2.08507         4.57651
   H       -2.95232         2.29695         3.01134
   H       -1.44602         3.48623         2.27245
   H       -2.91356         5.91624        -1.80673
   H       -6.65809         4.42120        -1.70835
   H       -4.73792         6.79981        -1.76320
   H       -6.71291        10.80705        -4.73903
   H       -7.58566        11.07415        -6.25928
   H       -4.77982         9.85816        -6.05235
   H       -5.14118        11.52128        -6.53294
   H       -5.65542        10.17074        -7.54830
   H       -8.33768         9.68809        -8.42634
   H       -9.77039         9.80326        -7.39350
   H       -8.97651         7.61274        -9.31643
   H      -10.60645         8.10531        -8.82194
   H       -5.02740         9.77100        -3.64726
   H       -4.13363        11.03712        -1.61455
   H       -4.59321        11.30864         0.90087
   H       -5.47426        11.15586         3.13800
   H       -6.76835        10.50356         5.26720
   H       -8.53226         8.83221         6.09949
   H      -11.04729         4.31552         3.78207
   H      -12.59031         4.55308         6.79886
*
