# ORCA input file
# SCF done       -165.529975378756          0.000427292981
! CAM-B3LYP def2-SVP def2/J RIJCOSX Grid4 TightSCF
%maxcore 5000
%tddft
    Mode sTDDFT
    Ethresh 5.0
    maxcore 5000
end

%pal
  nprocs 6
  end
* xyz 0 1
   C       -2.46925        -4.09476        -6.39365
   C       -2.78347        -5.09388        -5.49587
   C       -2.01835        -6.26087        -5.31416
   N       -1.44139        -7.23407        -5.10940
   C       -3.89090        -5.11359        -4.62715
   N       -4.75698        -5.22659        -3.87830
   C       -1.30363        -4.10387        -7.27852
   C       -1.30258        -2.90769        -8.03551
   C       -0.33615        -2.62050        -8.96591
   C        0.68295        -3.56073        -9.16089
   C        0.67458        -4.75042        -8.39943
   C       -0.30536        -5.04106        -7.45647
   S        2.02259        -5.77442        -8.79772
   C        2.56922        -4.60304        -9.96774
   C        1.78637        -3.50277       -10.05694
  Br        4.12412        -4.94450       -10.96216
   C       -2.47731        -2.09102        -7.65186
   O       -2.77156        -1.00113        -8.10724
   C       -3.18816        -2.87621        -6.63215
   C       -4.37553        -2.49346        -6.02802
   C       -5.05451        -1.30771        -6.25052
   C       -6.26221        -1.02395        -5.62512
   C       -7.04746         0.13690        -5.74691
   C       -8.20462         0.11055        -5.01013
   C       -8.37669        -1.07538        -4.28152
   S       -7.03012        -2.15756        -4.54016
   C       -9.42771        -1.47059        -3.45769
   C      -10.60195        -0.78828        -3.10145
   C      -11.42997        -1.51667        -2.28892
   C      -10.94298        -2.79887        -1.96068
   S       -9.39170        -3.05027        -2.72486
   C      -11.62435        -3.74662        -1.21675
   C      -11.22784        -5.01858        -0.81942
   S      -12.48266        -6.08983        -0.17733
   C      -11.39823        -7.43361         0.05569
   C      -10.10191        -7.03899        -0.31050
   C      -10.01225        -5.71300        -0.79934
   S       -8.35721        -5.35624        -1.15971
   C       -7.95914        -6.98580        -0.66037
   N       -8.92777        -7.71801        -0.26142
   C      -11.84837        -8.67855         0.50068
   C      -11.00297        -9.74459         0.68608
   C      -11.41022       -11.03127         1.04289
   S      -10.21857       -12.30562         1.26307
   C      -11.41497       -13.54270         1.57196
   C      -12.69339       -12.96448         1.51900
   C      -12.67664       -11.57876         1.23495
   S      -14.29716       -10.97646         1.18965
   C      -14.83816       -12.61106         1.55332
   N      -13.93054       -13.49677         1.68991
   C      -11.04806       -14.86866         1.80004
   C      -11.95203       -15.89644         1.94607
   C      -11.57171       -17.21977         2.14527
   C      -12.44592       -18.28605         2.21167
   C      -12.10430       -19.64439         2.39991
   C      -13.16696       -20.49724         2.38818
   C      -14.41033       -19.85556         2.18705
   S      -14.18031       -18.12498         2.02931
   C      -15.65569       -20.44123         2.09870
   C      -15.96190       -21.82663         2.19226
   C      -17.27467       -22.11817         2.04938
   C      -18.11321       -20.97553         1.83107
   S      -17.11275       -19.51356         1.82600
   C      -19.44140       -20.95377         1.65065
   H       -0.36353        -1.70049        -9.52865
   H       -0.26652        -5.96436        -6.90329
   H        1.97600        -2.68318       -10.72593
   H       -4.82173        -3.18183        -5.32005
   H       -4.64432        -0.57719        -6.93202
   H       -6.74353         0.95809        -6.37138
   H       -8.92423         0.90945        -4.98431
   H      -10.81345         0.20833        -3.44468
   H      -12.37601        -1.16371        -1.91753
   H      -12.63596        -3.47581        -0.93874
   H       -6.94107        -7.31939        -0.70421
   H      -12.90903        -8.78398         0.68229
   H       -9.94505        -9.58995         0.52805
   H      -15.88633       -12.81408         1.64785
   H       -9.98826       -15.08433         1.83389
   H      -13.00710       -15.66532         1.88459
   H      -10.51704       -17.44654         2.23995
   H      -11.08177       -19.95036         2.53515
   H      -13.08806       -21.56198         2.51384
   H      -15.19377       -22.56020         2.36076
   H      -17.69377       -23.10782         2.08773
   H      -20.01112       -21.86615         1.65914
   H      -19.97588       -20.03526         1.49206
*
