# ORCA input file
# SCF done       -180.544100709280          0.000483211424
! CAM-B3LYP def2-SVP def2/J RIJCOSX Grid4 TightSCF
%maxcore 5000
%tddft
    Mode sTDDFT
    Ethresh 5.0
    maxcore 5000
end

%pal
  nprocs 6
  end
* xyz 0 1
   C       -8.91526        -5.17767        -2.06292
   C       -8.90188        -5.81991        -0.84826
   C       -9.81080        -6.83320        -0.48033
   N      -10.51800        -7.66022        -0.11252
   C       -8.01655        -5.57315         0.21999
   N       -7.36455        -5.42940         1.15588
   C       -9.89085        -5.42567        -3.12233
   C       -9.60496        -4.56696        -4.21052
   C      -10.35626        -4.54258        -5.35904
   C      -11.45062        -5.41048        -5.43919
   C      -11.72885        -6.26821        -4.34970
   C      -10.96546        -6.29265        -3.18842
   S      -13.12601        -7.25611        -4.65554
   C      -13.31483        -6.51061        -6.22034
   C      -12.38078        -5.57198        -6.50240
  Br      -14.72889        -7.04038        -7.33333
   C       -8.41604        -3.75589        -3.88587
   O       -7.88656        -2.94349        -4.62221
   C       -8.01814        -4.13969        -2.52715
   C       -7.00770        -3.57096        -1.78587
   C       -6.09691        -2.55995        -2.11454
   S       -5.74934        -2.02261        -3.74093
   C       -4.40604        -1.12484        -3.18160
   C       -4.22693        -1.16025        -1.82974
   C       -3.14852        -0.41701        -1.11389
   C       -5.21069        -1.96060        -1.18801
   C       -5.27600        -2.05201         0.23488
   C       -6.36349        -2.31941         1.00103
   C       -6.29947        -2.35669         2.41599
   C       -7.34191        -2.74220         3.19591
   C       -7.29099        -2.71113         4.60920
   O       -8.33459        -3.19960         5.33558
   C       -6.36147        -2.18636         5.49198
   C       -5.06328        -1.52015         5.58613
   O       -4.26906        -1.19470         4.73592
   N       -4.89727        -1.31479         6.94994
   C       -5.94894        -1.77025         7.75143
   O       -5.99032        -1.64892         8.95272
   C       -6.88469        -2.34821         6.79789
   C       -8.11094        -2.99506         6.66544
   C       -9.05232        -3.44134         7.60802
   C       -8.94716        -3.15605         8.94413
   C       -9.84806        -3.59746         9.91511
   C       -9.80594        -3.19096        11.23249
   C      -10.65366        -3.60768        12.28553
   C      -10.41210        -2.98809        13.47649
   C       -9.37133        -2.03738        13.42103
   S       -8.67533        -1.98854        11.81427
   C       -8.92880        -1.18199        14.41303
   C       -9.41603        -1.04294        15.73413
   C       -8.79511        -0.06032        16.43712
   C       -7.79371         0.65081        15.71272
   S       -7.66054        -0.02351        14.10223
   C       -7.04312         1.65214        16.26116
   C       -5.99348         2.47397        15.75312
   C       -5.67982         2.71705        14.40651
   O       -6.55038         2.18595        13.52094
   C       -6.30967         2.09179        12.13155
   C       -4.56292         3.54655        14.05002
   O       -4.34270         3.71743        12.71466
   C       -3.26614         4.52273        12.29866
   C       -3.77767         4.14531        15.00610
   C       -4.09043         3.95949        16.35906
   C       -5.20153         3.13661        16.73478
   N       -5.35498         3.07554        18.05301
   S       -4.20977         3.97651        18.74937
   N       -3.46392         4.48026        17.41160
   H      -10.10996        -3.87328        -6.16831
   H      -11.22277        -6.96575        -2.38823
   H      -12.34767        -5.01453        -7.42062
   H       -6.87521        -3.96130        -0.78515
   H       -3.80973        -0.57921        -3.88825
   H       -2.53587         0.13127        -1.82451
   H       -2.50926        -1.10646        -0.56362
   H       -3.57643         0.28836        -0.40321
   H       -4.35530        -1.81923         0.75434
   H       -7.33560        -2.47215         0.55404
   H       -5.36951        -2.06644         2.88599
   H       -8.26149        -3.10141         2.75653
   H       -4.07940        -0.86641         7.33633
   H       -9.88736        -4.01262         7.22853
   H       -8.11899        -2.54198         9.27513
   H      -10.63330        -4.28502         9.62904
   H      -11.41607        -4.35069        12.13011
   H      -10.96006        -3.18091        14.38153
   H      -10.20952        -1.65784        16.11973
   H       -9.02629         0.19745        17.45580
   H       -7.22558         1.82969        17.31534
   H       -5.35209         1.61678        11.91712
   H       -6.35288         3.06972        11.65058
   H       -7.11265         1.45966        11.75242
   H       -3.29522         4.50039        11.21037
   H       -2.30808         4.12360        12.64440
   H       -3.37921         5.55470        12.64419
   H       -2.93957         4.77081        14.75449
*
