# ORCA input file
# SCF done       -146.971095773306          0.000418782001
! CAM-B3LYP def2-SVP def2/J RIJCOSX Grid4 TightSCF
%maxcore 5000
%tddft
    Mode sTDDFT
    Ethresh 5.0
    maxcore 5000
end

%pal
  nprocs 6
  end
* xyz 0 1
   C       -4.04656        -2.47737         1.29743
   C       -3.20571        -2.17659         0.26256
   C       -2.72130        -0.87276         0.02677
   C       -3.06423         0.19857         0.82690
   C       -3.93764        -0.07553         1.91461
   C       -4.42342        -1.41658         2.14290
   N       -5.20227        -1.37042         3.20821
   O       -5.20288        -0.10299         3.61261
   N       -4.45133         0.69356         2.85270
   C       -2.57863         1.52599         0.59307
   O       -2.97283         2.52927         1.41140
   C       -1.72902         2.04583        -0.36165
   C       -0.90397         1.72259        -1.53132
   O       -0.71424         0.67424        -2.09656
   N       -0.34558         2.94068        -1.88620
   C       -0.71272         4.02713        -1.08086
   O       -0.32608         5.15561        -1.23659
   C       -1.61235         3.43326        -0.09571
   C       -2.40089         3.69989         1.01493
   C       -2.66959         4.89211         1.71878
   C       -3.48463         4.91648         2.81667
   C       -3.77583         6.08219         3.53643
   C       -4.57813         6.12926         4.65408
   C       -5.26159         5.07967         5.32173
   C       -5.96473         5.48371         6.41516
   C       -5.87672         6.87272         6.67010
   S       -4.87196         7.64906         5.47274
   C       -6.46022         7.59934         7.69203
   C       -7.28609         7.14442         8.74433
   C       -7.68759         8.13260         9.59212
   C       -7.20120         9.42033         9.25218
   S       -6.21406         9.32633         7.81144
   C       -7.43319        10.60240         9.91455
   C       -6.90402        11.82805         9.48498
   O       -6.12949        11.86862         8.36372
   C       -7.00149        13.12210         9.98325
   C       -7.57586        13.94286        11.04392
   O       -8.27276        13.66128        11.98530
   N       -7.12753        15.23274        10.73912
   C       -6.33168        15.33425         9.60354
   O       -5.85101        16.35276         9.17714
   C       -6.25324        13.95286         9.11521
   C       -5.72736        13.14743         8.12323
   C       -4.91420        13.44332         6.99783
   C       -4.50653        12.48758         6.13185
   C       -3.69696        12.68290         4.96361
   C       -3.19577        13.88637         4.50707
   C       -2.40969        13.99880         3.34073
   C       -2.07664        12.92569         2.56237
   C       -2.55721        11.66983         2.97813
   C       -3.36216        11.54794         4.17091
   N       -3.66332        10.27426         4.31122
   O       -3.09265         9.64158         3.28663
   N       -2.42313        10.45797         2.47234
   H       -4.41763        -3.47177         1.47970
   H       -2.89050        -2.95921        -0.41060
   H       -2.05866        -0.70763        -0.80945
   H        0.28413         3.04068        -2.66952
   H       -2.19600         5.78787         1.34651
   H       -3.92039         3.98037         3.13713
   H       -3.34118         7.01174         3.19349
   H       -5.21538         4.06111         4.98102
   H       -6.54025         4.82587         7.04153
   H       -7.55936         6.10978         8.84931
   H       -8.31704         7.98387        10.45130
   H       -8.04474        10.61480        10.80259
   H       -7.36669        16.03364        11.30589
   H       -4.65149        14.48450         6.88758
   H       -4.80636        11.46315         6.30909
   H       -3.40941        14.78887         5.05799
   H       -2.06254        14.98228         3.06050
   H       -1.47812        13.01169         1.67148
*
