# ORCA input file
# SCF done       -174.278067210424          0.000574859091
! CAM-B3LYP def2-SVP def2/J RIJCOSX Grid4 TightSCF
%maxcore 5000
%tddft
    Mode sTDDFT
    Ethresh 5.0
    maxcore 5000
end

%pal
  nprocs 6
  end
* xyz 0 1
   C       13.86141       -12.88143        -5.49178
   C       12.92699       -11.92934        -5.62108
   C       12.87923       -10.87029        -6.58774
   C       11.80401       -10.05915        -6.47353
   C       10.91900       -10.40620        -5.41514
   S       11.51175       -11.81509        -4.56284
   C        9.74712        -9.77307        -5.06669
   C        9.14970        -8.64518        -5.67513
   C        7.97149        -8.27400        -5.10586
   C        7.56495        -9.07308        -4.00619
   S        8.75888       -10.32782        -3.72812
   C        6.34924        -8.93145        -3.37463
   C        5.76970        -9.62052        -2.30222
   S        4.03225        -9.64515        -2.24128
   C        3.97110       -10.70002        -0.85853
   C        5.28270       -10.96542        -0.40091
   C        6.29071       -10.34109        -1.20168
   C        7.63340       -10.38778        -0.79636
   C        7.97235       -11.09941         0.32033
   F        9.25386       -11.14186         0.72088
   C        6.99095       -11.77105         1.07277
   F        7.36393       -12.46563         2.15902
   C        5.66726       -11.70053         0.73473
   C        2.69242       -11.10186        -0.44449
   C        2.34487       -11.97060         0.55007
   C        1.01502       -12.31150         0.84666
   S       -0.32849       -11.66660        -0.06242
   C       -1.51019       -12.56758         0.86927
   C       -0.85482       -13.32173         1.85940
   C        0.55645       -13.16360         1.85083
   C        1.43574       -13.81017         2.81925
   O        2.65705       -13.72736         2.79300
   C        0.74348       -14.57515         3.87561
   C        1.50685       -15.16189         4.88290
   C        0.90364       -15.88253         5.89489
   C       -0.47659       -16.03282         5.91007
   C       -1.24395       -15.46136         4.91431
   C       -0.64756       -14.72513         3.89164
   C       -1.51416       -14.14564         2.84793
   O       -2.72315       -14.37077         2.85076
   C       -2.86756       -12.49266         0.50614
   S       -4.01582       -13.72409         0.94918
   C       -5.24474       -13.08931        -0.09298
   C       -4.81894       -11.88401        -0.69885
   C       -3.47969       -11.54184        -0.35515
   C       -2.95200       -10.32904        -0.82816
   C       -3.71230        -9.53375        -1.64363
   F       -3.20592        -8.36930        -2.08576
   C       -5.01574        -9.90152        -2.01736
   F       -5.72514        -9.09807        -2.83010
   C       -5.57308       -11.05780        -1.54267
   C       -6.48631       -13.71641        -0.24013
   C       -6.83683       -14.88112         0.39895
   C       -8.06744       -15.51501         0.24379
   C       -8.42384       -16.68568         0.87946
   C       -9.65104       -17.37754         0.75794
   C       -9.72959       -18.51618         1.50135
   C       -8.56382       -18.78778         2.25462
   S       -7.36359       -17.53993         1.98332
   C       -8.33056       -19.85335         3.09680
   C       -9.21504       -20.92557         3.39628
   C       -8.71378       -21.83678         4.26060
   C       -7.38351       -21.55170         4.71454
   S       -6.82348       -20.04817         3.96455
   C       -6.63469       -22.26760         5.56538
   H       14.70460       -12.91763        -6.15890
   H       13.79922       -13.63445        -4.72784
   H       13.65498       -10.76498        -7.32513
   H       11.60927        -9.21632        -7.11280
   H        9.59884        -8.14631        -6.51468
   H        7.37271        -7.44486        -5.43974
   H        5.68168        -8.22646        -3.85886
   H        8.39846        -9.85158        -1.32917
   H        4.95232       -12.19810         1.36554
   H        1.88075       -10.66452        -1.01824
   H        3.07863       -12.46406         1.16398
   H        2.57864       -15.03417         4.84732
   H        1.50571       -16.32914         6.67216
   H       -0.95108       -16.59733         6.69896
   H       -2.31839       -15.56963         4.90368
   H       -1.97346        -9.97948        -0.54827
   H       -6.58353       -11.31101        -1.81761
   H       -7.20497       -13.25608        -0.90507
   H       -6.11667       -15.33788         1.06652
   H       -8.79991       -15.07209        -0.41920
   H      -10.43885       -17.01147         0.12303
   H      -10.58825       -19.16270         1.52748
   H      -10.19526       -20.98231         2.95718
   H       -9.23478       -22.71313         4.60301
   H       -7.01312       -23.17660         5.99849
   H       -5.64183       -21.96178         5.83955
*
