# ORCA input file
# SCF done       -137.132874348261          0.000535997571
! CAM-B3LYP def2-SVP def2/J RIJCOSX Grid4 TightSCF
%maxcore 5000
%tddft
    Mode sTDDFT
    Ethresh 5.0
    maxcore 5000
end

%pal
  nprocs 6
  end
* xyz 0 1
   C       14.41664        -3.65776         6.76657
   C       13.96689        -3.72053         5.50504
   C       14.51187        -3.07940         4.34422
   C       13.83740        -3.32965         3.19859
   C       12.71081        -4.18067         3.35355
   S       12.54089        -4.65840         5.03300
   C       11.83934        -4.60197         2.37522
   C       11.86156        -4.29195         0.99602
   C       10.84889        -4.86304         0.28753
   C        9.96204        -5.65606         1.05431
   S       10.48076        -5.65234         2.73023
   C        8.85867        -6.31370         0.55464
   C        7.92355        -7.10058         1.22829
   C        7.86219        -7.45515         2.57467
   C        6.73101        -8.24631         2.78187
   C        6.04439        -8.41635         1.58311
   C        6.74626        -7.70796         0.48908
   N        4.92694        -9.15508         1.69478
   C        4.81912        -9.51545         2.96565
   C        5.96448        -8.98065         3.82125
   C        3.77428       -10.29617         3.48889
   S        3.79178       -10.67961         5.19053
   C        2.32443       -11.55878         5.03434
   C        1.81992       -11.56507         3.77319
   C        0.56400       -12.30101         3.44032
   C        2.63865       -10.83551         2.85224
   C        2.45000       -10.62205         1.45866
   C        1.35435       -10.84438         0.68631
   C        1.29043       -10.55016        -0.70442
   C        2.29142        -9.99545        -1.44279
   C        2.23108        -9.68372        -2.82066
   S        3.50612        -8.72819        -3.51608
   C        2.74107        -8.68565        -5.08418
   C        1.56384        -9.44393        -5.06002
   C        1.28613       -10.00097        -3.79768
   O        0.20549       -10.82473        -3.55258
   C        0.53170       -12.20222        -3.56923
   O        0.86785        -9.61503        -6.20804
   C       -0.50133        -9.95844        -6.14311
   C        3.36752        -7.95217        -6.10506
   C        2.90567        -7.55264        -7.33373
   C        3.68408        -6.79506        -8.25142
   C        3.03455        -6.43607        -9.38849
   C        1.68993        -6.87882        -9.43534
   S        1.29947        -7.79173        -7.98875
   C        0.76589        -6.66238       -10.42944
   C        0.93812        -5.92675       -11.63329
   C       -0.15977        -5.87473       -12.42069
   C       -1.29932        -6.57063       -11.89666
   S       -0.86854        -7.29528       -10.33882
   C       -2.51519        -6.68709       -12.44879
   H       15.28657        -3.07380         7.00994
   H       13.92793        -4.18030         7.56808
   H       15.38664        -2.45814         4.42059
   H       14.10803        -2.93026         2.23700
   H       12.61766        -3.65914         0.56716
   H       10.70600        -4.73681        -0.77184
   H        8.69625        -6.18986        -0.51008
   H        8.56799        -7.16772         3.33129
   H        6.12174        -6.94229         0.02566
   H        7.07159        -8.38540        -0.30232
   H        6.52912        -9.79397         4.27973
   H        5.59353        -8.33852         4.62123
   H        1.91124       -12.03387         5.90313
   H        0.25258       -12.90444         4.29037
   H        0.72123       -12.95530         2.58487
   H       -0.23916       -11.60337         3.20542
   H        3.31447       -10.17555         0.99081
   H        0.44677       -11.24165         1.11335
   H        0.35058       -10.76484        -1.19325
   H        3.21784        -9.71604        -0.96052
   H       -0.39287       -12.73403        -3.35150
   H        1.28314       -12.44360        -2.81097
   H        0.90791       -12.50772        -4.55225
   H       -0.91538        -9.67096        -7.10956
   H       -1.01255        -9.41667        -5.34548
   H       -0.63538       -11.03253        -5.99340
   H        4.36624        -7.61071        -5.85737
   H        4.70793        -6.54544        -8.03241
   H        3.48058        -5.87290       -10.18875
   H        1.87721        -5.45910       -11.87172
   H       -0.21635        -5.36500       -13.36626
   H       -2.73219        -6.22998       -13.39802
   H       -3.30511        -7.23391       -11.96793
*
