# ORCA input file
# SCF done       -183.917691493981          0.000824327046
! CAM-B3LYP def2-SVP def2/J RIJCOSX Grid4 TightSCF
%maxcore 5000
%tddft
    Mode sTDDFT
    Ethresh 5.0
    maxcore 5000
end

%pal
  nprocs 6
  end
* xyz 0 1
   C        7.32463         6.70226        -1.00105
   S        7.47452         7.31365         0.59152
   C        5.81419         7.85386         0.59012
   C        5.21128         7.57097        -0.61765
   C        6.08138         6.90557        -1.51842
   C        5.69716         6.49893        -2.91418
   C        6.44447         7.36005        -3.89507
   C        7.29601         6.89699        -4.78932
   C        4.17887         6.61824        -3.10894
   C        3.64461         7.91929        -2.52223
   C        3.81118         7.92779        -1.00383
   C        5.32955         8.49496         1.77366
   C        4.03782         8.69176         2.09155
   N        3.63678         9.34657         3.22959
   C        2.35290         9.57433         3.57667
   S        1.05451         8.98943         2.58500
   C       -0.09156         9.69234         3.68854
   N       -1.43957         9.53705         3.39669
   O       -2.25323        10.02689         4.16508
   O       -1.71738         8.91329         2.37965
   C        0.50010        10.33357         4.74432
   C        1.90637        10.28512         4.70936
   C        2.78953        10.87259         5.66894
   C        2.39356        11.64230         6.71680
   C        3.22209        12.24739         7.68675
   C        4.58229        12.18892         7.84890
   C        5.29770        12.85689         8.87922
   C        6.64154        12.65444         8.86984
   C        7.08778        11.80663         7.83085
   S        5.72193        11.28829         6.85880
   C        8.37055        11.39132         7.55870
   C        9.56203        11.72398         8.24680
   C       10.67338        11.13324         7.73980
   C       10.44778        10.28639         6.61529
   S        8.72815        10.30160         6.23433
   C       11.43073         9.58813         5.97722
   C       11.37319         8.69647         4.86107
   C       12.57774         8.09428         4.43957
   C       12.58233         7.23237         3.37372
   C       11.37681         6.91058         2.71993
   C       10.18298         7.49366         3.12117
   C       10.19060         8.38364         4.17208
   C       11.64634         5.91800         1.70737
   C       13.01779         5.61349         1.73658
   C       13.73764         6.48366         2.74659
   C       14.52308         5.65379         3.77184
   C       13.64690         4.62261         4.47385
   C       14.66545         7.42661         1.94508
   C       15.34653         8.52788         2.74678
   C       13.54462         4.66541         0.89681
   C       12.70377         3.98831        -0.00065
   C       11.34244         4.32393        -0.03475
   C       10.80568         5.27301         0.81039
   C       13.19681         2.96451        -0.89084
   C       14.40668         2.37897        -0.81031
   C       14.89212         1.37042        -1.69144
   S       13.92722         0.77010        -3.00797
   C       15.17609        -0.34451        -3.48708
   C       16.26792        -0.25384        -2.64929
   C       16.11573         0.72752        -1.64564
   C       17.17295         1.02590        -0.61407
   C       17.46942         2.49651        -0.52031
   C       17.64323         3.15309         0.61184
   C       18.48170         0.29433        -0.95193
   C       18.20481        -1.14025        -1.37817
   C       17.47286        -1.13856        -2.71665
   C       14.90715        -1.17732        -4.62847
   C       15.78844        -1.84580        -5.37013
   H        8.16482         6.23096        -1.47134
   H        5.99828         5.45799        -3.07709
   H        6.25450         8.42219        -3.82365
   H        7.51119         5.84432        -4.87768
   H        7.81561         7.54689        -5.47281
   H        3.68764         5.77695        -2.61442
   H        3.95213         6.56172        -4.17524
   H        2.58748         8.03149        -2.76892
   H        4.17830         8.76735        -2.95381
   H        3.11900         7.20108        -0.56500
   H        3.55654         8.91415        -0.60841
   H        6.09347         8.82321         2.46801
   H        3.22930         8.33368         1.47737
   H        4.35921         9.69884         3.84670
   H       -0.08293        10.81168         5.50888
   H        3.84382        10.68859         5.52972
   H        1.33761        11.83742         6.83974
   H        2.71006        12.85271         8.42456
   H        4.78337        13.46836         9.59965
   H        7.32362        13.08421         9.58144
   H        9.56012        12.38669         9.09365
   H       11.66482        11.26889         8.13600
   H       12.42196         9.73085         6.39419
   H       13.48582         8.31318         4.98245
   H        9.25989         7.24912         2.62000
   H        9.26171         8.83710         4.47578
   H       14.95522         6.32088         4.51909
   H       15.34363         5.14609         3.25989
   H       12.82798         5.11061         4.99785
   H       14.23310         4.06025         5.19735
   H       13.22401         3.92475         3.75466
   H       14.06900         7.88850         1.15381
   H       15.42818         6.80998         1.46365
   H       14.61301         9.21607         3.15774
   H       16.00940         9.09190         2.09370
   H       15.94265         8.11833         3.55814
   H       14.60094         4.44446         0.91805
   H       10.70095         3.80844        -0.73584
   H        9.75278         5.51142         0.77914
   H       12.51477         2.64046        -1.66819
   H       15.09221         2.65761        -0.02482
   H       16.81732         0.66880         0.36145
   H       17.57933         3.00334        -1.47031
   H       17.53956         2.66986         1.57068
   H       17.89305         4.20065         0.63140
   H       19.13609         0.32068        -0.07896
   H       18.98900         0.81859        -1.76545
   H       17.59161        -1.63590        -0.62242
   H       19.14085        -1.69381        -1.47115
   H       17.16641        -2.15221        -2.98394
   H       18.15119        -0.77671        -3.49607
   H       13.85952        -1.21711        -4.90212
   H       16.84770        -1.81562        -5.19570
   H       15.46122        -2.43771        -6.20731
*
