# ORCA input file
# SCF done       -196.714567410556          0.000675846908
! CAM-B3LYP def2-SVP def2/J RIJCOSX Grid4 TightSCF
%maxcore 5000
%tddft
    Mode sTDDFT
    Ethresh 5.0
    maxcore 5000
end

%pal
  nprocs 6
  end
* xyz 0 1
   C       -5.16507        -2.53786        -0.68594
   C       -3.84275        -2.89594        -0.63122
   C       -3.38441        -4.22889        -0.61428
   N       -2.95413        -5.29340        -0.60472
   C       -2.76849        -1.98640        -0.53381
   N       -1.84414        -1.31561        -0.41513
   C       -6.30187        -3.44753        -0.65286
   C       -7.49264        -2.68319        -0.56787
   C       -8.73753        -3.26164        -0.51201
   C       -8.81222        -4.65784        -0.53332
   C       -7.61776        -5.41164        -0.62103
   C       -6.35798        -4.82806        -0.68300
   S       -7.94985        -7.11537        -0.64117
   C       -9.64905        -6.81014        -0.53158
   C       -9.96123        -5.49686        -0.48260
   C       -7.16176        -1.24557        -0.58072
   O       -7.95264        -0.32788        -0.63527
   C       -5.67866        -1.18277        -0.66503
   C       -4.96424        -0.04536        -0.88686
   C       -5.43279         1.27787        -0.63621
   C       -5.01588         2.35566        -1.44514
   C       -5.47992         3.70423        -1.22376
   N       -5.02248         4.69550        -2.01009
   C       -4.20388         4.40990        -2.99304
   C       -3.79733         3.05924        -3.24866
   N       -4.19825         2.08059        -2.47602
   C       -2.94715         2.77716        -4.34661
   N       -2.26991         2.59171        -5.25188
   C       -3.70547         5.45081        -3.81435
   N       -3.27900         6.25718        -4.50812
   C       -6.36554         4.02379        -0.16848
   C       -6.71203         2.95962         0.68517
   C       -6.25426         1.60653         0.45838
   N       -6.66334         0.77472         1.41506
   S       -7.58282         1.58378         2.44789
   N       -7.48497         3.03409         1.77525
   C       -6.86036         5.37255         0.04870
   C       -7.16415         6.20733        -1.03780
   C       -7.59177         7.49532        -0.81513
   C       -7.73472         7.96237         0.50625
   C       -7.45528         7.13848         1.58782
   C       -7.02427         5.85083         1.35507
   C       -8.17751         9.33690         0.47425
   C       -8.31290         9.72420        -0.86703
   C       -7.98865         8.57425        -1.80271
   C       -6.85832         9.02970        -2.75655
   C       -5.90385         7.95746        -3.26476
   C       -9.30262         8.22160        -2.53795
   C       -9.23772         7.09684        -3.56135
   C       -8.67672        11.00973        -1.18449
   C       -8.93141        11.93894        -0.16422
   C       -8.81078        11.52805         1.17020
   C       -8.43432        10.24182         1.49587
   C       -9.28453        13.28866        -0.54165
   C       -9.71905        14.27523         0.26264
   C      -10.01646        15.58635        -0.23980
   C      -10.50920        16.62895         0.44472
   C      -10.89888        16.62334         1.88852
   C      -10.76131        17.93610        -0.26395
   N      -12.16888        18.05326        -0.57653
   C      -12.82556        19.22602        -0.68429
   C      -14.07205        19.35901        -1.20235
   C      -14.77307        20.58252        -1.29180
   S      -14.12021        22.07378        -0.70346
   C      -15.52423        22.99579        -1.16338
   C      -16.45684        22.17077        -1.79409
   C      -16.04110        20.80265        -1.85415
   C      -16.88081        19.85046        -2.45115
   C      -18.08561        20.21467        -3.00590
   C      -18.94151        19.20730        -3.62723
   C      -19.03437        17.94469        -3.22929
   C      -18.47485        21.58889        -3.00202
   C      -19.76680        22.00452        -3.63822
   C      -17.67685        22.52691        -2.40798
   C      -15.52488        24.38848        -0.83385
   C      -16.58297        25.19388        -0.71628
   H       -9.62721        -2.65408        -0.45063
   H       -5.47692        -5.44358        -0.75752
   H      -10.31933        -7.64740        -0.51114
   H      -10.96533        -5.11883        -0.41439
   H       -3.97170        -0.10885        -1.31489
   H       -7.06783         5.81284        -2.03389
   H       -7.56480         7.50367         2.59793
   H       -6.78458         5.20532         2.18426
   H       -6.25996         9.77441        -2.22429
   H       -7.32138         9.53368        -3.60795
   H       -5.37565         7.48496        -2.44160
   H       -5.16394         8.41586        -3.91752
   H       -6.41652         7.18913        -3.83477
   H       -9.65152         9.12788        -3.03967
   H      -10.04556         7.96372        -1.77737
   H       -8.54110         7.33162        -4.36089
   H      -10.22308         6.96064        -4.00384
   H       -8.94780         6.15889        -3.09769
   H       -8.76561        11.32021        -2.21601
   H       -8.99528        12.23715         1.96242
   H       -8.33217         9.94729         2.52972
   H       -9.18602        13.50349        -1.59989
   H       -9.85337        14.09987         1.31865
   H       -9.79886        15.72901        -1.29256
   H      -11.00167        15.61719         2.28111
   H      -11.84609        17.14611         2.01550
   H      -10.14817        17.14942         2.47994
   H      -10.15912        17.98989        -1.18235
   H      -10.48636        18.77758         0.37774
   H      -12.59064        17.24193        -1.00540
   H      -12.30278        20.08937        -0.29501
   H      -14.57475        18.48380        -1.58936
   H      -16.56330        18.82054        -2.50151
   H      -19.54016        19.54055        -4.46398
   H      -18.49334        17.57042        -2.37608
   H      -19.67748        17.24091        -3.72939
   H      -20.59858        21.43323        -3.22842
   H      -19.73768        21.83429        -4.71467
   H      -19.95339        23.06189        -3.46731
   H      -17.96919        23.56426        -2.43239
   H      -14.54098        24.79140        -0.62170
   H      -17.59381        24.85190        -0.84282
   H      -16.45736        26.23090        -0.45892
*
