# ORCA input file
# SCF done       -199.026215279540          0.000577955704
! CAM-B3LYP def2-SVP def2/J RIJCOSX Grid4 TightSCF
%maxcore 5000
%tddft
    Mode sTDDFT
    Ethresh 5.0
    maxcore 5000
end

%pal
  nprocs 6
  end
* xyz 0 1
   C       -7.06500        -1.51238         0.61216
   C       -6.16730        -2.19853         1.39080
   C       -6.35409        -3.52702         1.82548
   N       -6.44466        -4.60545         2.20926
   C       -4.95467        -1.68595         1.89685
   N       -3.96317        -1.34287         2.36460
   C       -8.34912        -2.03086         0.15078
   C       -9.03582        -0.99712        -0.53508
   C      -10.28027        -1.17275        -1.08979
   C      -10.87600        -2.43197        -0.96888
   C      -10.18257        -3.45959        -0.28666
   C       -8.92504        -3.27983         0.27928
   S      -11.10194        -4.93112        -0.26599
   C      -12.38042        -4.17392        -1.15153
   C      -12.13787        -2.87946        -1.45233
   C       -8.19896         0.21151        -0.54474
   O       -8.49468         1.29152        -1.03009
   C       -6.94908        -0.14935         0.13212
   C       -5.83198         0.64301         0.22537
   C       -5.61452         1.94986        -0.22559
   S       -6.77919         3.00732        -0.98090
   C       -5.61171         4.27759        -1.13099
   C       -4.36668         3.88809        -0.62699
   C       -4.36739         2.59693        -0.11464
   S       -2.99771         1.75494         0.59155
   C       -1.58759         2.82536         0.57379
   O       -0.56186         2.36431         0.99126
   C       -1.60971         4.25653         0.08404
   O       -0.61729         4.92651         0.17875
   S       -3.01649         5.01591        -0.65874
   C       -5.90757         5.53195        -1.71785
   C       -7.15378         5.91095        -2.08607
   C       -7.51434         7.16082        -2.69310
   C       -6.56085         8.02246        -3.26436
   C       -6.96732         9.20572        -3.82354
   C       -8.32521         9.57770        -3.81659
   C       -9.28011         8.72876        -3.26837
   C       -8.86969         7.52993        -2.72798
   C       -8.44672        10.87897        -4.42420
   C       -7.16927        11.30841        -4.83606
   C       -6.13451        10.24482        -4.54474
   C       -4.98546        10.77538        -3.67525
   C       -5.47470        11.31623        -2.33653
   C       -5.61173         9.57644        -5.83874
   C       -4.89923        10.49597        -6.82149
   C       -7.00614        12.55324        -5.38756
   C       -8.11654        13.40251        -5.56081
   C       -9.38425        12.94647        -5.15951
   C       -9.55414        11.70195        -4.59606
   C       -7.90879        14.68951        -6.15547
   C       -8.80020        15.71680        -6.20604
   C       -8.53625        16.93737        -6.84868
   C       -9.39127        18.01205        -6.86240
   C       -9.20459        19.24044        -7.53945
   C      -10.22124        20.13311        -7.37515
   C      -11.26305        19.66924        -6.54465
   S      -10.91947        18.04254        -5.99490
   C      -12.40461        20.34926        -6.16081
   C      -12.81922        21.63720        -6.56395
   C      -13.99072        22.04041        -5.99968
   C      -14.57119        21.10593        -5.10495
   S      -13.55722        19.66986        -5.03613
   C      -15.73314        21.31041        -4.40606
   C      -16.37060        20.48293        -3.45904
   C      -17.56389        20.81264        -2.80799
   C      -17.89812        19.77245        -1.90762
   C      -18.95169        19.61315        -1.03502
   C      -18.98344        18.44569        -0.25495
   C      -19.88540        18.00133         0.70056
   C      -19.44562        16.73649         1.20553
   C      -18.27106        16.40156         0.55736
   C      -17.93998        17.44088        -0.36726
   C      -16.89309        17.59206        -1.23524
   C      -16.85695        18.76530        -2.02070
   C      -15.94497        19.20290        -2.96005
   C      -20.09464        15.93431         2.21421
   C      -21.22598        16.24426         2.84177
   H      -10.77613        -0.36400        -1.60379
   H       -8.43887        -4.09637         0.78607
   H      -13.24794        -4.75528        -1.39660
   H      -12.81762        -2.25024        -1.99792
   H       -4.96097         0.20290         0.69679
   H       -5.06630         6.20093        -1.83785
   H       -7.96825         5.22482        -1.88629
   H       -5.51950         7.74018        -3.27533
   H      -10.32477         9.00161        -3.27065
   H       -9.59914         6.85714        -2.30049
   H       -4.46845        11.57175        -4.21189
   H       -4.27093         9.96786        -3.50259
   H       -6.17726        12.13313        -2.48750
   H       -4.63549        11.68702        -1.75262
   H       -5.97397        10.53681        -1.76502
   H       -6.46443         9.11668        -6.34578
   H       -4.93204         8.77334        -5.54495
   H       -5.57943        11.24784        -7.21191
   H       -4.52977         9.90822        -7.65925
   H       -4.04985        10.99082        -6.35814
   H       -6.02845        12.91350        -5.67201
   H      -10.24429        13.58174        -5.30353
   H      -10.53462        11.37123        -4.28673
   H       -6.93052        14.85177        -6.59303
   H       -9.76692        15.62390        -5.72935
   H       -7.60045        17.04511        -7.38203
   H       -8.32496        19.42308        -8.13138
   H      -10.24262        21.11216        -7.81935
   H      -12.24886        22.22635        -7.25929
   H      -14.45929        22.99004        -6.19096
   H      -16.22741        22.25564        -4.60035
   H      -18.13383        21.71051        -2.96247
   H      -19.73018        20.35773        -0.94482
   H      -20.77183        18.52131         1.01466
   H      -17.69190        15.51001         0.71554
   H      -16.11185        16.85046        -1.32578
   H      -15.05847        18.67923        -3.26550
   H      -19.58773        15.00743         2.45326
   H      -21.76752        17.15175         2.63685
   H      -21.65379        15.59378         3.58479
*
