# ORCA input file
# SCF done       -210.904679415371          0.000488351033
! CAM-B3LYP def2-SVP def2/J RIJCOSX Grid4 TightSCF
%maxcore 5000
%tddft
    Mode sTDDFT
    Ethresh 5.0
    maxcore 5000
end

%pal
  nprocs 6
  end
* xyz 0 1
   C       -4.02820        -2.32252         1.73224
   C       -4.90031        -3.20178         1.14515
   C       -4.83270        -4.60202         1.29987
   N       -4.83076        -5.74624         1.39404
   C       -5.95714        -2.84484         0.28065
   N       -6.82257        -2.64317        -0.44695
   C       -2.87480        -2.68685         2.54308
   C       -2.13412        -1.51455         2.82642
   C       -0.98304        -1.52845         3.57594
   C       -0.54178        -2.75993         4.07077
   C       -1.29151        -3.92636         3.78659
   C       -2.45491        -3.91216         3.02799
   S       -0.57344        -5.33784         4.50259
   C        0.70746        -4.35558         5.16212
   C        0.60492        -3.03878         4.86401
  Br        2.05802        -5.16145         6.18422
   C       -2.79644        -0.34384         2.21257
   O       -2.41311         0.80274         2.28378
   C       -4.03492        -0.87521         1.58625
   C       -5.10642        -0.14925         1.16245
   C       -5.20915         1.25978         0.91760
   C       -6.46772         1.86418         1.10774
   C       -6.61151         3.20941         0.89704
   C       -5.52305         3.98176         0.44387
   C       -4.29174         3.38522         0.20223
   C       -4.13974         2.03659         0.44613
   C       -5.96125         5.34971         0.30033
   C       -7.31606         5.42883         0.67389
   C       -7.83910         4.07045         1.07591
   C       -8.98453         3.61587         0.15159
   C       -8.58663         3.59711        -1.31944
   C       -8.32075         4.06265         2.53881
   C       -7.23963         4.50020         3.51988
   C       -7.97777         6.62937         0.64431
   C       -7.30418         7.79204         0.22705
   C       -5.95446         7.69244        -0.15021
   C       -5.28245         6.48983        -0.11402
   C       -8.03710         9.02960         0.22657
   C       -7.59405        10.21834        -0.24514
   C       -8.28846        11.46440        -0.23106
   C       -9.55242        11.72815         0.34628
   C      -10.15850        13.04540         0.32121
   N      -11.43542        13.18735         0.67660
   C      -12.10880        12.15935         1.14787
   C      -11.44242        10.91728         1.37853
   N      -10.21457        10.73396         0.95746
   C      -12.09561         9.85941         2.05614
   N      -12.64332         9.01410         2.60311
   C      -13.48407        12.30437         1.43857
   N      -14.59920        12.38308         1.69492
   C       -9.46613        14.18739        -0.17462
   C       -8.24948        13.89443        -0.84219
   C       -7.67337        12.57648        -0.85514
   N       -6.51441        12.55334        -1.51393
   S       -6.18653        14.02842        -2.06449
   N       -7.49497        14.77657        -1.48969
   C       -9.93753        15.51543        -0.12665
   S       -9.38135        16.62976        -1.32821
   C      -10.38190        17.93406        -0.74030
   C      -11.09775        17.51677         0.41261
   C      -10.81959        16.16740         0.77512
   C      -11.32039        15.67209         1.98304
   C      -12.15703        16.43185         2.77553
   C      -12.63702        15.90807         4.05265
   C      -12.91491        14.63333         4.28991
   C      -12.53554        17.73004         2.34826
   C      -13.50966        18.53643         3.14946
   C      -11.99914        18.25111         1.19508
   C      -10.29019        19.13766        -1.43690
   C      -10.82822        20.36961        -1.12941
   C      -10.64858        21.48951        -1.93191
   C      -11.13482        22.74818        -1.63086
   C      -10.98653        23.92176        -2.39913
   C      -11.56296        25.03013        -1.85026
   C      -12.19872        24.78911        -0.61296
   S      -12.04410        23.10108        -0.17405
   C      -12.85724        25.69534         0.19327
   C      -13.04490        27.08277        -0.04788
   C      -13.72671        27.73018         0.92522
   C      -14.13244        26.89559         2.01779
   S      -13.58787        25.23773         1.71482
   C      -14.81227        27.25140         3.11744
   H       -0.44048        -0.61737         3.77423
   H       -2.99489        -4.82601         2.84457
   H        1.30682        -2.29296         5.18986
   H       -6.03889        -0.68816         1.03293
   H       -7.29807         1.26185         1.44785
   H       -3.46269         3.96700        -0.17086
   H       -3.19429         1.56356         0.24092
   H       -9.83148         4.29079         0.28958
   H       -9.30156         2.61564         0.45351
   H       -8.28616         4.58912        -1.64988
   H       -9.42664         3.27166        -1.92838
   H       -7.75697         2.91345        -1.48610
   H       -8.65410         3.05396         2.79165
   H       -9.18036         4.72988         2.62638
   H       -6.37635         3.84025         3.46428
   H       -7.62633         4.47575         4.53599
   H       -6.91058         5.51386         3.30207
   H       -9.01577         6.69864         0.93683
   H       -5.42632         8.57888        -0.46498
   H       -4.24266         6.43539        -0.40039
   H       -9.03178         8.98006         0.64449
   H       -6.61747        10.29040        -0.70515
   H      -11.02292        14.69565         2.32477
   H      -12.77148        16.63711         4.84078
   H      -12.84414        13.87935         3.52459
   H      -13.25742        14.29879         5.25393
   H      -13.06768        18.83748         4.09970
   H      -14.40225        17.95173         3.36489
   H      -13.79963        19.43508         2.61065
   H      -12.28891        19.24409         0.89581
   H       -9.68005        19.09119        -2.33251
   H      -11.39272        20.51155        -0.22125
   H      -10.09231        21.38674        -2.85472
   H      -10.45710        23.91457        -3.33571
   H      -11.54436        26.00587        -2.30105
   H      -12.66599        27.55354        -0.93752
   H      -13.96361        28.77911         0.91774
   H      -15.12380        28.27051         3.26364
   H      -15.06520        26.53950         3.88149
*
