# ORCA input file
# SCF done       -191.535074067621          0.000818082301
! CAM-B3LYP def2-SVP def2/J RIJCOSX Grid4 TightSCF
%maxcore 5000
%tddft
    Mode sTDDFT
    Ethresh 5.0
    maxcore 5000
end

%pal
  nprocs 6
  end
* xyz 0 1
   C      -12.33360        -1.03400        -5.54510
   C      -13.13517        -1.97748        -4.94979
   C      -14.32687        -2.47373        -5.51238
   N      -15.30516        -2.91304        -5.92397
   C      -12.87143        -2.55445        -3.69232
   N      -12.69835        -3.04328        -2.66729
   C      -12.58646        -0.38600        -6.82889
   C      -11.55905         0.56088        -7.07828
   C      -11.52264         1.33530        -8.21207
   C      -12.54753         1.16703        -9.14965
   C      -13.56644         0.21930        -8.89460
   C      -13.60466        -0.56285        -7.74585
   S      -14.73083         0.17100       -10.18293
   C      -13.84526         1.40841       -11.03496
   C      -12.73444         1.83668       -10.38977
  Br      -14.47139         2.01880       -12.69457
   C      -10.61121         0.53593        -5.95669
   O       -9.60299         1.22124        -5.81606
   C      -11.10697        -0.48048        -5.02517
   C      -10.41709        -0.80505        -3.88084
   N       -9.28472        -0.16449        -3.56910
   C       -8.45257        -0.43830        -2.53204
   S       -8.68656        -1.83486        -1.52227
   C       -7.21109        -1.45590        -0.69357
   N       -6.80734        -2.29628         0.34878
   O       -5.76527        -2.02690         0.92012
   O       -7.53186        -3.24262         0.60692
   C       -6.58728        -0.33328        -1.17157
   C       -7.29578         0.28280        -2.21853
   C       -6.84661         1.49787        -2.85803
   C       -7.63903         2.44687        -3.38441
   C       -7.19077         3.66477        -4.02136
   C       -5.87007         3.84258        -4.45947
   C       -5.50620         5.02782        -5.04708
   C       -6.43877         6.06854        -5.20805
   C       -7.75252         5.89789        -4.79445
   C       -8.11539         4.69914        -4.21542
   C       -5.77392         7.19013        -5.83091
   C       -4.43352         6.83927        -6.07327
   C       -4.15716         5.43326        -5.59352
   C       -3.07958         5.42175        -4.49337
   C       -3.44053         6.30402        -3.30424
   C       -3.72331         4.51679        -6.75227
   C       -4.74817         4.46450        -7.87892
   C       -3.57487         7.72995        -6.66396
   C       -4.02535         9.01798        -7.00883
   C       -5.36710         9.35041        -6.75658
   C       -6.23848         8.45129        -6.18096
   C       -3.09699         9.93770        -7.60207
   C       -3.29016        11.27082        -7.78319
   C       -2.34345        12.13206        -8.36523
   C       -2.51592        13.48864        -8.48175
   C       -1.62654        14.42673        -9.05783
   C       -2.06336        15.71752        -9.01338
   C       -3.32078        15.87657        -8.39496
   S       -3.94300        14.32307        -7.88109
   C       -4.02426        17.04578        -8.16994
   C       -3.66851        18.36477        -8.51854
   C       -4.58459        19.29898        -8.13664
   C       -5.71588        18.77892        -7.46137
   S       -5.56550        17.03747        -7.34189
   C       -6.74945        19.55155        -6.98577
   C       -7.91760        19.22527        -6.29007
   S       -8.96009        20.59813        -5.89667
   C      -10.14532        19.63571        -5.08133
   C      -11.39125        20.22479        -4.51722
   C      -12.53839        20.17612        -5.53156
   C       -9.75180        18.32316        -5.12934
   C       -8.50925        18.05916        -5.79189
   C       -8.31023        16.65659        -5.69909
   C       -9.37860        16.14373        -5.02188
   N      -10.25473        17.13630        -4.67481
   H      -10.72818         2.04715        -8.37298
   H      -14.40191        -1.27199        -7.59877
   H      -12.07289         2.59306       -10.77092
   H      -10.75390        -1.57600        -3.20002
   H       -8.99680         0.55823        -4.25325
   H       -5.66447         0.03461        -0.76067
   H       -5.77575         1.64266        -2.83239
   H       -8.71352         2.35927        -3.28819
   H       -5.15155         3.04463        -4.35008
   H       -8.47886         6.68622        -4.92529
   H       -9.13576         4.55161        -3.89093
   H       -2.13619         5.76337        -4.92446
   H       -2.93743         4.39387        -4.15258
   H       -3.56312         7.33853        -3.61726
   H       -2.65399         6.26208        -2.55427
   H       -4.37042         5.97197        -2.84752
   H       -3.56253         3.50950        -6.36193
   H       -2.77061         4.87843        -7.14505
   H       -5.69804         4.07801        -7.51610
   H       -4.39437         3.81560        -8.67691
   H       -4.91615         5.45729        -8.29060
   H       -2.54499         7.46292        -6.85590
   H       -5.72983        10.32809        -7.03344
   H       -7.26788         8.72612        -6.00329
   H       -2.14379         9.51788        -7.90121
   H       -4.21031        11.73411        -7.45247
   H       -1.42037        11.71086        -8.74155
   H       -0.69000        14.11648        -9.48712
   H       -1.51361        16.55567        -9.40321
   H       -2.75435        18.59006        -9.03772
   H       -4.48228        20.35498        -8.31640
   H       -6.63619        20.61223        -7.18287
   H      -11.20560        21.26256        -4.23518
   H      -11.67570        19.67169        -3.61763
   H      -12.27806        20.74826        -6.41864
   H      -13.44140        20.59803        -5.09788
   H      -12.74109        19.15033        -5.83170
   H       -7.48850        16.08837        -6.07821
   H       -9.57937        15.12268        -4.75955
   H      -11.11268        17.01163        -4.16725
*
