# ORCA input file
# SCF done       -206.508250535180          0.004001693720
! CAM-B3LYP def2-SVP def2/J RIJCOSX Grid4 TightSCF
%maxcore 5000
%tddft
    Mode sTDDFT
    Ethresh 5.0
    maxcore 5000
end

%pal
  nprocs 6
  end
* xyz 0 1
   C       -0.34534        -0.48271        -0.21629
   C        0.70223         0.26943         0.24469
   C        2.03445        -0.18858         0.31784
   N        3.13407        -0.50117         0.40847
   C        0.62241         1.61171         0.66966
   N        0.66699         2.71123         1.00022
   C       -0.24166        -1.82323        -0.77285
   C       -1.50884        -2.20360        -1.27610
   C       -1.73432        -3.42102        -1.87180
   C       -0.65531        -4.30431        -1.97977
   C        0.60956        -3.91403        -1.47608
   C        0.83652        -2.68511        -0.87127
   S        1.80342        -5.15452        -1.71421
   C        0.60402        -6.16668        -2.47538
   C       -0.62709        -5.60691        -2.54898
  Br        1.09126        -7.86658        -3.09923
   C       -2.48399        -1.11432        -1.05426
   O       -3.65148        -1.13756        -1.36799
   C       -1.73580        -0.05745        -0.31973
   C       -2.25247         1.01255         0.33722
   C       -3.56350         1.60121         0.27109
   C       -4.00457         2.31913         1.40754
   O       -3.17236         2.37056         2.49606
   C       -2.77618         3.66397         2.94665
   C       -2.02226         4.45372         1.88427
   C       -5.27742         2.90866         1.40653
   C       -6.04003         2.88016         0.23365
   C       -5.57894         2.24709        -0.91479
   C       -4.35614         1.57781        -0.87412
   O       -6.23522         2.21316        -2.09261
   C       -7.45320         2.92936        -2.23539
   C       -7.88517         2.82591        -3.68761
   C       -5.82529         3.50067         2.61055
   C       -6.70591         4.52781         2.61872
   C       -7.28823         5.08424         3.77880
   C       -8.17039         6.12854         3.74001
   C       -8.83291         6.75728         4.82699
   C       -9.67125         7.76511         4.46694
   C       -9.72465         7.99522         3.07043
   S       -8.66294         6.89125         2.23123
   C      -10.47494         8.91950         2.37679
   C      -11.41310         9.86076         2.86162
   C      -11.99609        10.60868         1.88939
   C      -11.56286        10.29998         0.56704
   S      -10.36288         9.02038         0.63182
   C      -11.94370        10.97564        -0.55615
   N      -11.58713        10.73956        -1.85491
   C      -11.26193         9.56660        -2.42794
   S      -11.79729         8.06646        -1.72647
   C      -10.89752         7.18027        -2.92213
   N      -10.90689         5.79393        -2.82857
   O      -10.28055         5.15526        -3.66149
   O      -11.54208         5.30624        -1.90512
   C      -10.24416         7.98898        -3.81123
   C      -10.47389         9.36073        -3.58968
   C       -9.89657        10.33815        -4.45252
   C      -10.37145        11.57861        -4.75528
   C       -9.64151        12.43975        -5.59557
   C       -9.91620        13.69672        -6.06801
   C      -10.93922        14.68170        -5.82359
   C      -11.72854        14.83737        -4.70391
   C      -12.66801        15.87444        -4.52928
   N      -13.45479        16.68688        -4.33024
   C      -11.66481        14.03756        -3.55990
   N      -11.65944        13.41697        -2.58909
   C      -10.88989        15.64697        -6.92080
   C       -9.74327        15.38646        -7.71135
   C       -9.05618        14.19686        -7.17541
   O       -8.02285        13.70014        -7.56471
   C       -9.40571        16.14617        -8.80349
   C      -10.24916        17.21015        -9.14353
   C      -11.40276        17.45179        -8.36067
   C      -11.73839        16.68757        -7.24933
   S      -12.31458        18.80161        -8.96605
   C      -11.14667        19.02287       -10.24211
   C      -10.12679        18.13176       -10.21867
  Br      -11.38553        20.40715       -11.48465
   H       -2.71249        -3.68183        -2.24446
   H        1.81604        -2.43636        -0.49812
   H       -1.48174        -6.09116        -2.98548
   H       -1.61109         1.49450         1.06686
   H       -2.13206         3.45846         3.80440
   H       -3.64696         4.24059         3.28178
   H       -1.11718         3.93352         1.57888
   H       -1.74498         5.42332         2.28802
   H       -2.65391         4.60529         1.01018
   H       -7.02187         3.32417         0.25460
   H       -4.03194         1.06258        -1.76099
   H       -7.29987         3.98207        -1.96146
   H       -8.22183         2.50261        -1.57870
   H       -7.09602         3.19995        -4.33353
   H       -8.78351         3.41618        -3.84385
   H       -8.08272         1.78947        -3.94509
   H       -5.51114         3.05793         3.54753
   H       -6.98666         4.99110         1.68111
   H       -7.03602         4.66317         4.74274
   H       -8.66801         6.43509         5.84004
   H      -10.25471         8.34692         5.15764
   H      -11.63328         9.95122         3.90995
   H      -12.73368        11.37097         2.06528
   H      -12.53330        11.87353        -0.43000
   H      -11.52592        11.60716        -2.40074
   H       -9.64341         7.60058        -4.61431
   H       -8.99205        10.01396        -4.95360
   H      -11.34310        11.88264        -4.40525
   H       -8.71514        12.03328        -5.99256
   H       -8.52073        15.92635        -9.37978
   H      -12.63305        16.91014        -6.69229
   H       -9.32112        18.12280       -10.92997
*
