# ORCA input file
# SCF done       -224.634237825522          0.000365264390
! CAM-B3LYP def2-SVP def2/J RIJCOSX Grid4 TightSCF
%maxcore 5000
%tddft
    Mode sTDDFT
    Ethresh 5.0
    maxcore 5000
end

%pal
  nprocs 6
  end
* xyz 0 1
   C        1.06975         0.70777         4.70063
   C        0.90834         0.07059         5.90305
   C        1.78143        -0.92276         6.39381
   N        2.45902        -1.73178         6.84579
   C       -0.15629         0.28679         6.80362
   N       -0.99377         0.39016         7.58264
   C        2.11751         0.42927         3.72798
   C        1.86620         1.19066         2.56153
   C        2.68041         1.14565         1.45602
   C        3.79698         0.30514         1.50256
   C        4.04341        -0.44997         2.67438
   C        3.22100        -0.40238         3.79262
   S        5.47954        -1.41652         2.52080
   C        5.72323        -0.80461         0.90616
   C        4.78068         0.07931         0.50123
  Br        7.20099        -1.38743        -0.09061
   C        0.64288         1.99834         2.74516
   O        0.18034         2.77559         1.94018
   C        0.18488         1.71263         4.13134
   C       -0.74744         2.41850         4.82716
   C       -1.71102         3.35540         4.32205
   C       -2.09209         4.42557         5.15372
   C       -2.99262         5.35014         4.69390
   C       -3.57195         5.20866         3.41754
   C       -3.24813         4.12299         2.61428
   C       -2.31899         3.21006         3.06631
   C       -4.47284         6.31583         3.19757
   C       -4.44966         7.14584         4.33351
   C       -3.51169         6.59173         5.38006
   C       -4.26386         6.24397         6.67865
   C       -5.41350         5.26903         6.45465
   C       -2.37018         7.57758         5.69168
   C       -1.57505         7.97306         4.45309
   C       -5.21195         8.28517         4.37744
   C       -6.02511         8.62816         3.28217
   C       -6.04086         7.78358         2.16022
   C       -5.27533         6.63842         2.11001
   C       -6.79144         9.84347         3.36486
   C       -7.64994        10.31345         2.43242
   C       -8.37589        11.53934         2.52423
   C       -9.24698        11.91036         1.47183
   C       -9.99577        13.14622         1.47797
   N      -10.74231        13.47207         0.40652
   C      -10.83326        12.63777        -0.59609
   C      -10.15050        11.37556        -0.56701
   N       -9.37342        11.06068         0.43798
   C      -10.30195        10.46042        -1.63707
   N      -10.44709         9.73918        -2.51584
   C      -11.61736        12.99163        -1.72177
   N      -12.25230        13.23604        -2.64381
   C       -9.92778        14.05351         2.55366
   C       -9.06545        13.68503         3.60429
   C       -8.30544        12.45236         3.59867
   N       -7.58204        12.31972         4.71355
   S       -7.83713        13.58707         5.66601
   N       -8.86531        14.37920         4.73009
   C      -10.68806        15.29035         2.59631
   C      -10.12787        16.42676         3.19989
   C      -10.86129        17.58216         3.27641
   C      -12.16353        17.64374         2.74949
   C      -12.72160        16.52819         2.13843
   C      -11.98404        15.36507         2.06807
   C      -12.70468        18.95359         3.02062
   C      -11.74225        19.70285         3.72725
   C      -10.45764        18.91708         3.86437
   C       -9.99489        18.79020         5.32265
   C      -11.01705        18.06911         6.19361
   C       -9.34251        19.49221         2.95891
   C       -8.90335        20.91647         3.27209
   C      -12.04594        20.95246         4.20328
   C      -13.30877        21.51468         3.93881
   C      -14.23468        20.77101         3.18618
   C      -13.95183        19.49874         2.74096
   C      -13.68773        22.81601         4.40801
   C      -12.97570        23.61478         5.24546
   C      -13.41258        24.88359         5.67062
   C      -12.72464        25.67920         6.54722
   C      -13.10326        26.96410         7.01650
   C      -12.23174        27.52080         7.89689
   C      -11.10486        26.70974         8.18478
   S      -11.19451        25.21155         7.28012
   C      -10.06528        26.98348         9.04084
   C       -9.88057        28.15292         9.83060
   C       -8.76488        28.14097        10.59248
   C       -7.97214        26.95148        10.46569
   S       -8.74655        25.85947         9.30645
   C       -6.82744        26.65686        11.09660
   H        2.46041         1.73912         0.58246
   H        3.45509        -0.99144         4.66345
   H        4.77756         0.55419        -0.46285
   H       -0.75129         2.30835         5.90591
   H       -1.64304         4.52180         6.13202
   H       -3.71330         3.99412         1.64913
   H       -2.07986         2.35180         2.46090
   H       -4.65149         7.16726         7.11416
   H       -3.55543         5.81152         7.38812
   H       -6.14359         5.68639         5.76462
   H       -5.91255         5.05818         7.39746
   H       -5.04857         4.33089         6.04251
   H       -1.70063         7.11759         6.42154
   H       -2.79743         8.47244         6.14891
   H       -1.12271         7.09925         3.98923
   H       -0.78280         8.66722         4.72379
   H       -2.21881         8.45474         3.72046
   H       -5.19736         8.93025         5.24437
   H       -6.65996         8.03714         1.31431
   H       -5.29679         6.00440         1.23647
   H       -6.65001        10.42617         4.26480
   H       -7.83854         9.76308         1.52217
   H       -9.12526        16.38057         3.59324
   H      -13.72349        16.56180         1.73771
   H      -12.42204        14.48598         1.62373
   H       -9.81864        19.78635         5.73050
   H       -9.05035        18.24314         5.34633
   H      -11.97500        18.58429         6.16560
   H      -10.67374        18.03639         7.22505
   H      -11.16382        17.04887         5.84705
   H       -9.69718        19.45431         1.92544
   H       -8.47955        18.82676         3.03498
   H       -9.71821        21.61768         3.11424
   H       -8.08687        21.19457         2.60895
   H       -8.55049        21.00778         4.29584
   H      -11.32649        21.50643         4.78426
   H      -15.20045        21.20799         2.97494
   H      -14.68764        18.93278         2.18949
   H      -14.64928        23.17728         4.06262
   H      -12.02240        23.28666         5.63734
   H      -14.35268        25.25942         5.28793
   H      -14.01346        27.43104         6.68300
   H      -12.36412        28.48665         8.35052
   H      -10.58714        28.96349         9.80344
   H       -8.46087        28.93403        11.25233
   H       -6.39201        27.34925        11.79516
   H       -6.31155        25.72933        10.92899
*
