# ORCA input file
# SCF done       -204.042365656428          0.000976885060
! CAM-B3LYP def2-SVP def2/J RIJCOSX Grid4 TightSCF
%maxcore 5000
%tddft
    Mode sTDDFT
    Ethresh 5.0
    maxcore 5000
end

%pal
  nprocs 6
  end
* xyz 0 1
   C       -0.85929         0.75227        -0.27645
   C       -0.95913        -0.25312         0.65107
   C        0.01975        -1.24858         0.84645
   N        0.78872        -2.07573         1.05157
   C       -2.05910        -0.42381         1.51709
   N       -2.92770        -0.61905         2.24211
   C        0.22878         0.94339        -1.22711
   C       -0.07417         2.05959        -2.04537
   C        0.79444         2.53585        -2.99711
   C        2.00227         1.85499        -3.17911
   C        2.27739         0.71376        -2.38654
   C        1.41193         0.25039        -1.40268
   S        3.81165         0.00977        -2.79124
   C        4.06254         1.23968        -4.00127
   C        3.04980         2.13576        -4.09728
  Br        5.62241         1.21358        -5.03743
   C       -1.40413         2.58851        -1.69065
   O       -1.94046         3.56754        -2.16170
   C       -1.86021         1.76156        -0.54021
   C       -2.93563         2.09271         0.23705
   C       -4.02521         2.85883        -0.24056
   S       -4.89694         3.97701         0.75870
   C       -6.00000         4.37413        -0.53009
   C       -5.71554         3.61091        -1.66662
   C       -4.61482         2.76003        -1.50485
   C       -4.20829         1.73423        -2.37830
   N       -3.88304         0.80112        -2.96022
   C       -6.55435         3.68210        -2.90189
   F       -7.87701         3.64108        -2.60859
   F       -6.38715         4.83504        -3.58168
   F       -6.34798         2.68729        -3.75872
   C       -7.00201         5.35157        -0.38454
   C       -7.37955         5.89520         0.81503
   C       -8.32068         6.91673         1.00808
   C       -8.83515         7.78243         0.06476
   C       -9.78416         8.80824         0.30637
   C      -10.05566         9.59967        -0.77145
   C       -9.32636         9.24707        -1.92485
   S       -8.31793         7.85312        -1.60168
   C       -9.28080         9.83373        -3.17594
   C       -9.97762        10.94187        -3.70547
   C       -9.63111        11.26254        -4.98517
   C       -8.63183        10.42579        -5.53993
   S       -8.17551         9.18988        -4.36311
   C       -8.01448        10.47908        -6.75889
   N       -7.04464         9.58236        -7.06169
   C       -6.27113         9.47279        -8.15927
   S       -6.41310        10.54324        -9.51113
   C       -5.10444         9.69797       -10.28643
   N       -4.73395        10.14942       -11.55741
   O       -3.83559         9.56579       -12.13188
   O       -5.35864        11.10368       -11.99284
   C       -4.59461         8.66810        -9.54591
   C       -5.25423         8.50559        -8.31161
   C       -4.97230         7.51491        -7.32146
   C       -3.92792         6.65202        -7.31325
   C       -3.77502         5.72162        -6.25421
   C       -2.72683         4.89651        -5.99408
   C       -1.38788         4.80839        -6.53318
   C       -0.62258         5.84861        -6.99360
   C        0.73079         5.70868        -7.36433
   N        1.83601         5.63441        -7.66397
   C       -1.05373         7.19103        -7.02396
   N       -1.34525         8.30134        -7.03273
   C       -0.90557         3.45789        -6.26248
   C       -1.81187         2.81562        -5.37876
   C       -2.92875         3.73330        -5.08198
   O       -3.84128         3.59018        -4.30433
   C       -1.60712         1.53644        -4.92208
   C       -0.45131         0.87033        -5.34233
   C        0.43241         1.50962        -6.24307
   C        0.22185         2.79911        -6.71571
   S        1.78313         0.49235        -6.64244
   C        1.17311        -0.74418        -5.57306
   C        0.00395        -0.42403        -4.97001
  Br        2.15030        -2.32834        -5.34355
   H        0.55129         3.40666        -3.58562
   H        1.67648        -0.60822        -0.80815
   H        3.04116         2.95935        -4.78828
   H       -2.97470         1.78068         1.27310
   H       -7.51881         5.63534        -1.28825
   H       -6.93522         5.47945         1.71194
   H       -8.65580         7.08338         2.02361
   H      -10.23375         8.93276         1.27569
   H      -10.74087        10.42829        -0.75982
   H      -10.71184        11.47242        -3.12641
   H      -10.05416        12.07758        -5.54425
   H       -8.26184        11.22486        -7.49804
   H       -6.84778         8.90717        -6.32717
   H       -3.78030         8.06101        -9.89511
   H       -5.64564         7.46006        -6.47396
   H       -3.20678         6.65619        -8.11514
   H       -4.62678         5.59037        -5.59343
   H       -2.31795         1.06282        -4.26122
   H        0.91356         3.24488        -7.41166
   H       -0.51845        -1.06758        -4.28615
*
