# ORCA input file
# SCF done       -199.318138697747          0.000932611330
! CAM-B3LYP def2-SVP def2/J RIJCOSX Grid4 TightSCF
%maxcore 5000
%tddft
    Mode sTDDFT
    Ethresh 5.0
    maxcore 5000
end

%pal
  nprocs 6
  end
* xyz 0 1
   C       -1.20947         1.21476        -1.65635
   C       -2.23286         1.87112        -2.29109
   C       -3.33535         1.22134        -2.88635
   N       -4.26074         0.75732        -3.38254
   C       -2.34423         3.26755        -2.46147
   N       -2.50309         4.38949        -2.65270
   C       -1.08762        -0.23237        -1.51984
   C        0.12488        -0.52597        -0.83115
   C        0.51813        -1.80693        -0.57093
   C       -0.30128        -2.87741        -0.99324
   C       -1.52033        -2.59375        -1.67435
   C       -1.89983        -1.25626        -1.93114
   C       -2.33286        -3.66898        -2.08776
   C       -1.95888        -4.96271        -1.84460
   C       -0.75662        -5.24075        -1.17729
   C        0.05428        -4.22019        -0.75981
   C        0.80945         0.73061        -0.49451
   O        1.86608         0.84944         0.09504
   C       -0.05051         1.81225        -1.01317
   C        0.17509         3.15160        -0.88449
   C        1.25516         3.85542        -0.30777
   C        1.25632         5.24671        -0.25211
   C        2.50288         5.78214         0.17565
   C        2.85829         7.12116         0.35141
   C        4.15624         7.41865         0.72497
   C        5.09225         6.39651         0.98143
   C        4.73091         5.07515         0.86784
   C        3.43792         4.76337         0.45520
   S        2.77882         3.17478         0.22426
   C        4.54377         8.77602         0.81971
   N        4.84807         9.88010         0.86400
   C        0.17436         6.12095        -0.63652
   N       -1.09855         6.10348        -0.12671
   C       -1.57713         5.29127         0.96495
   C       -0.88019         5.64677         2.27533
   C       -1.84744         7.21514        -0.58311
   O       -2.98117         7.44952        -0.22414
   C       -0.94940         7.90219        -1.48160
   C        0.28130         7.18961        -1.50161
   C        1.22142         7.92339        -2.32482
   O        2.35952         7.69344        -2.67071
   N        0.51458         9.08693        -2.68115
   C        1.09730        10.09978        -3.52394
   C        0.43438        10.14449        -4.89761
   C       -0.75952         9.09408        -2.16254
   C       -1.59211        10.24296        -2.13168
   C       -2.90428        10.21975        -1.79329
   C       -3.58872        11.40429        -1.40071
   C       -3.00049        12.44901        -0.69752
   C       -3.94488        13.48723        -0.39504
   C       -3.78971        14.62147         0.39734
   C       -4.85821        15.49284         0.55332
   C       -6.10153        15.23584        -0.04645
   C       -6.28949        14.08251        -0.77358
   C       -5.21926        13.21267        -0.93333
   S       -5.26833        11.67752        -1.75010
   C       -4.68470        16.65864         1.33454
   N       -4.53424        17.60214         1.96786
   C       -1.65628        12.34375        -0.21131
   C       -0.74712        13.34315        -0.08658
   C        0.51959        13.27452         0.62679
   C        1.15087        12.14677         1.08440
   C        2.29684        12.16911         1.91128
   N        3.18267        12.13722         2.63928
   C        0.77167        10.82169         0.79890
   N        0.55980         9.71519         0.56759
   C        1.01634        14.63952         0.75096
   C        0.17891        15.50520        -0.01305
   C       -0.89937        14.71862        -0.63442
   O       -1.70468        15.08753        -1.46266
   C        0.41047        16.84794        -0.09251
   C        1.50545        17.40066         0.60889
   C        2.35149        16.54173         1.36882
   C        2.09240        15.15360         1.42624
   C        3.44453        17.10294         2.06022
   C        3.68919        18.44816         2.00758
   C        2.85322        19.29322         1.26240
   C        1.78475        18.78072         0.57743
   H        1.44441        -2.00066        -0.05063
   H       -2.82761        -1.07727        -2.45056
   H       -3.25706        -3.44988        -2.60209
   H       -2.58765        -5.77940        -2.16601
   H       -0.47617        -6.26742        -0.99551
   H        0.98092        -4.42809        -0.24507
   H       -0.56873         3.81174        -1.31351
   H        2.13852         7.90991         0.19610
   H        6.09511         6.66653         1.27643
   H        5.43490         4.28607         1.08099
   H       -1.43935         4.22957         0.73976
   H       -2.64816         5.49994         1.03875
   H        0.18214         5.41691         2.22341
   H       -1.31890         5.08025         3.09197
   H       -0.99442         6.70793         2.48339
   H        2.15334         9.83300        -3.62364
   H        1.02965        11.07660        -3.03237
   H        0.52795         9.17854        -5.38772
   H        0.91684        10.89657        -5.51558
   H       -0.62231        10.38838        -4.80996
   H       -1.11791        11.19465        -2.33626
   H       -3.44555         9.28450        -1.75995
   H       -2.85697        14.82525         0.89988
   H       -6.90948        15.93866         0.08783
   H       -7.24865        13.84888        -1.20804
   H       -1.37104        11.34517         0.10394
   H       -0.23916        17.48240        -0.67707
   H        2.74996        14.53017         2.01078
   H        4.08446        16.44768         2.63263
   H        4.52829        18.86892         2.54100
   H        3.05986        20.35257         1.23372
   H        1.13749        19.42656         0.00246
*
