# ORCA input file
# SCF done       -211.235879694948          0.000888749160
! CAM-B3LYP def2-SVP def2/J RIJCOSX Grid4 TightSCF
%maxcore 5000
%tddft
    Mode sTDDFT
    Ethresh 5.0
    maxcore 5000
end

%pal
  nprocs 6
  end
* xyz 0 1
   C        4.92386         4.32548        -1.27198
   C        4.61295         5.65479        -1.19562
   F        3.92594         6.23297        -2.19718
   C        4.98399         6.45204        -0.10431
   C        5.68221         5.88198         0.92361
   C        6.02940         4.51549         0.89718
   C        5.64174         3.72134        -0.22186
   C        5.97322         2.34658        -0.26804
   C        6.67144         1.79230         0.76878
   C        7.06799         2.59241         1.88073
   C        6.75529         3.91967         1.95296
   C        7.82896         1.76413         2.83524
   O        8.26965         2.07686         3.91791
   C        7.99998         0.45426         2.14871
   C        7.12607         0.42602         1.00032
   C        6.61562        -0.71064         0.43260
   C        6.94526        -1.99502         0.91274
   N        7.16717        -3.03516         1.34458
   C        5.68004        -0.71006        -0.61964
   N        4.91084        -0.74308        -1.47050
   C        8.93893        -0.43996         2.57163
   C        9.58209        -1.40312         1.77684
   C       10.29240        -2.51768         2.11668
   C       10.20665        -3.08090         3.50467
   C       11.21845        -2.41438         4.44348
   C       11.06743        -3.13250         1.06736
   C       11.68021        -4.49794         1.21738
   C       12.86444        -4.58070         2.18891
   C       11.07559        -2.44452        -0.11396
   S        9.86996        -1.09748         0.02120
   O        8.76795        -1.40268        -0.85394
   O       10.47890         0.19056        -0.15035
   C       11.63967        -2.59360        -1.38628
   S       10.70605        -2.00209        -2.72555
   C       11.91950        -2.46076        -3.88372
   C       13.05031        -3.01164        -3.23438
   C       12.89919        -3.07466        -1.82174
   C       13.97462        -3.50591        -1.03157
   C       15.14288        -3.93010        -1.62014
   C       16.30093        -4.39706        -0.79703
   C       15.25815        -3.91680        -3.02424
   C       14.24477        -3.45634        -3.82154
   C       11.74824        -2.27995        -5.26043
   C       10.61322        -1.77113        -5.83625
   C       10.44690        -1.56750        -7.21722
   C       11.36224        -1.75183        -8.24497
   C       10.76536        -1.40219        -9.47492
   C        9.37988        -0.98918        -9.15921
   C        9.20902        -1.08524        -7.81710
   C        8.40294        -0.56218       -10.06527
   N        7.57802        -0.20642       -10.78147
   C       11.35092        -1.40753       -10.72829
   C       10.75873        -1.04569       -11.96452
   C       11.70605        -1.13378       -12.97119
   C       12.94861        -1.58949       -12.36945
   C       12.74671        -1.76503       -11.03552
   C       13.71455        -2.20327       -10.12630
   N       14.52509        -2.55799        -9.39209
   C       11.48542        -0.82910       -14.33286
   C       12.45561        -0.76988       -15.29021
   C       12.15545        -0.46315       -16.63064
   C       13.00451        -0.37790       -17.69850
   C       12.53539         0.32756       -18.92313
   O       11.39350         0.62637       -19.19038
   C       13.75622         0.62711       -19.69318
   C       13.89194         1.36502       -20.83323
   C       15.18068         1.56159       -21.37732
   C       16.30877         0.99044       -20.71966
   C       17.59249         1.19971       -21.25992
   C       17.72786         1.94114       -22.40055
   C       16.63106         2.50927       -23.06278
   C       15.37785         2.31673       -22.55151
   F       18.95354         2.14237       -22.91793
   C       16.13631         0.22364       -19.54324
   C       14.87695         0.03735       -19.04087
   C       14.39861        -0.71247       -17.87837
   C       15.11436        -1.68906       -17.23375
   C       14.59145        -2.58756       -16.28107
   N       14.22796        -3.37610       -15.52958
   C       16.46307        -1.98876       -17.51984
   N       17.56316        -2.26699       -17.69356
   H        4.61971         3.74175        -2.12663
   H        4.71140         7.49545        -0.09954
   H        5.97939         6.47593         1.77477
   H        5.67885         1.76521        -1.12763
   H        7.05875         4.51004         2.80458
   H        9.31209        -0.28344         3.57925
   H       10.37661        -4.15579         3.48503
   H        9.19912        -2.90947         3.88575
   H       12.23225        -2.52688         4.07013
   H       11.15732        -2.86819         5.42937
   H       11.01476        -1.35218         4.54359
   H       12.00089        -4.82853         0.22889
   H       10.89747        -5.18348         1.55159
   H       13.49939        -3.70079         2.11136
   H       13.46259        -5.45900         1.95782
   H       12.53395        -4.66505         3.21896
   H       13.88922        -3.47864         0.04000
   H       16.57322        -5.41474        -1.07331
   H       16.06559        -4.37303         0.26349
   H       17.16900        -3.76416        -0.97650
   H       16.17925        -4.25901        -3.47159
   H       14.36641        -3.42460        -4.89244
   H       12.57107        -2.57033        -5.89801
   H        9.78224        -1.50908        -5.19305
   H       12.37197        -2.09318        -8.13933
   H        8.31579        -0.85465        -7.26621
   H        9.74030        -0.73452       -12.09204
   H       13.86053        -1.78812       -12.90028
   H       10.45937        -0.62924       -14.61731
   H       13.48494        -0.92681       -15.00887
   H       11.13025        -0.17946       -16.84968
   H       13.02621         1.79683       -21.31261
   H       18.45944         0.77462       -20.77873
   H       16.79940         3.08497       -23.95904
   H       14.51717         2.74448       -23.04324
   H       17.01050        -0.18719       -19.06387
*
