# ORCA input file
# SCF done       -208.398455759189          0.000318904060
! CAM-B3LYP def2-SVP def2/J RIJCOSX Grid4 TightSCF
%maxcore 5000
%tddft
    Mode sTDDFT
    Ethresh 5.0
    maxcore 5000
end

%pal
  nprocs 6
  end
* xyz 0 1
   C        6.30691        -0.62219        -0.21916
   C        7.45635        -0.82986        -0.92873
   F        8.34729         0.15781        -1.07039
   C        7.71880        -2.08329        -1.51967
   F        8.85278        -2.25728        -2.20824
   C        6.82743        -3.11168        -1.39263
   C        5.63375        -2.92886        -0.66755
   C        5.36683        -1.66195        -0.07041
   C        4.17451        -1.45409         0.65890
   C        3.27444        -2.48030         0.78462
   C        3.55208        -3.74356         0.19064
   C        4.69702        -3.97482        -0.51739
   C        2.45446        -4.68215         0.48522
   O        2.39972        -5.85296         0.18332
   C        1.48167        -3.91118         1.31067
   C        1.98000        -2.55246         1.45249
   C        1.31672        -1.50287         2.02900
   C        0.01672        -1.56918         2.57656
   N       -1.04453        -1.54386         3.01262
   C        1.83663        -0.19299         2.11587
   N        2.20988         0.88698         2.21869
   C        0.41329        -4.45131         1.95756
   C       -0.17091        -5.73054         1.73862
   C       -0.86498        -6.44120         2.68901
   C       -1.33334        -7.66694         2.11349
   C       -0.90814        -7.63557         0.70304
   C       -0.22287        -6.48282         0.48814
   C       -1.20273        -8.59167        -0.27627
   N       -1.45173        -9.35848        -1.09454
   C       -2.06753        -8.64743         2.72838
   C       -2.57912        -9.85048         2.13621
   C       -3.35075       -10.50626         3.05459
   C       -3.33502        -9.74773         4.29357
   C       -2.56126        -8.64378         4.11649
   C       -2.29001        -7.68732         5.10187
   N       -2.07938        -6.92431         5.93380
   C       -4.10209       -11.71913         2.80508
   C       -5.01742       -12.24520         3.63988
   N       -3.71069       -12.37990         1.65161
   N       -4.50645       -12.96746         0.93251
   C       -4.53480       -13.50471        -0.24545
   C       -5.24264       -14.65963        -0.52928
   C       -5.37560       -15.19385        -1.81236
   C       -6.18265       -16.35868        -2.01905
   C       -6.36576       -16.93583        -3.31849
   N       -7.18436       -17.99022        -3.46978
   C       -7.77836       -18.49417        -2.41696
   C       -7.55189       -17.95053        -1.11406
   N       -6.77926       -16.89811        -0.95337
   C       -8.17475       -18.52274         0.02215
   N       -8.69337       -18.99819         0.92628
   C       -8.66851       -19.58798        -2.57851
   N       -9.39698       -20.46699        -2.66376
   C       -5.67347       -16.45931        -4.46181
   C       -4.89182       -15.29671        -4.26731
   C       -4.76252       -14.66423        -2.97905
   N       -3.99673       -13.57636        -3.04108
   S       -3.50308       -13.35303        -4.55538
   N       -4.23486       -14.62238        -5.21248
   C       -5.84484       -17.11987        -5.70360
   C       -5.03698       -17.13470        -6.80245
   C       -5.61384       -17.53034        -8.11854
   O       -6.69782       -18.02579        -8.31651
   C       -4.60072       -17.13567        -9.11958
   C       -4.67668       -17.18433       -10.48123
   C       -3.57753       -16.73353       -11.24685
   C       -2.42103       -16.23281       -10.58135
   C       -1.33007       -15.78100       -11.35068
   C       -1.38322       -15.82723       -12.71552
   C       -2.52687       -16.32364       -13.37243
   C       -3.60196       -16.76765       -12.65457
   F       -2.55169       -16.35577       -14.71178
   F       -0.34403       -15.39858       -13.44444
   C       -2.37028       -16.19875        -9.16867
   C       -3.44259       -16.65084        -8.44748
   C       -3.65633       -16.77192        -7.00752
   C       -2.66360       -16.76400        -6.06018
   C       -2.85470       -17.13225        -4.71532
   N       -2.95331       -17.43585        -3.61181
   C       -1.32033       -16.43487        -6.32826
   N       -0.22053       -16.14178        -6.47953
   H        6.12121         0.34308         0.22544
   H        7.04323        -4.06444        -1.85021
   H        4.00518        -0.48720         1.10432
   H        4.88310        -4.94263        -0.95774
   H       -0.04878        -3.87957         2.75391
   H       -1.00747        -6.15214         3.71225
   H        0.17673        -6.15299        -0.45050
   H       -2.39323       -10.16230         1.12761
   H       -3.83672       -10.02444         5.20141
   H       -5.22723       -11.80623         4.59723
   H       -5.52997       -13.15799         3.39015
   H       -4.09567       -12.96258        -1.08763
   H       -5.68840       -15.22444         0.27672
   H       -6.77725       -17.66739        -5.80700
   H       -5.56188       -17.56355       -10.96875
   H       -0.44523       -15.40157       -10.86390
   H       -4.46983       -17.14513       -13.17227
   H       -1.48536       -15.80863        -8.69183
*
