# ORCA input file
# SCF done       -261.883839020818          0.000311225552
! CAM-B3LYP def2-SVP def2/J RIJCOSX Grid4 TightSCF
%maxcore 5000
%tddft
    Mode sTDDFT
    Ethresh 5.0
    maxcore 5000
end

%pal
  nprocs 6
  end
* xyz 0 1
   C      -11.67239        -9.33183         7.16069
   C      -11.02107       -10.46510         7.56063
   F      -11.08109       -10.86042         8.83632
   C      -10.27957       -11.23130         6.63702
   F       -9.65370       -12.33574         7.05759
   C      -10.20051       -10.85331         5.32584
   C      -10.86188        -9.69102         4.88273
   C      -11.61176        -8.91533         5.81559
   C      -12.28078        -7.74409         5.39403
   C      -12.20267        -7.36073         4.08067
   C      -11.44824        -8.13971         3.15472
   C      -10.79209        -9.27687         3.53475
   C      -11.48630        -7.50237         1.83112
   O      -10.96390        -7.88577         0.80512
   C      -12.24969        -6.24085         2.02256
   C      -12.77673        -6.22106         3.37790
   C      -13.70431        -5.34155         3.85779
   C      -14.31154        -4.35136         3.05420
   N      -14.85728        -3.57143         2.41417
   C      -14.20603        -5.36288         5.17703
   N      -14.63854        -5.34341         6.23901
   C      -12.21486        -5.24021         1.11440
   C      -11.62355        -5.41816        -0.18422
   C      -10.47811        -4.80932        -0.63884
   N       -9.73995        -3.86826         0.10334
   O      -10.11407        -3.64901         1.24626
   O       -8.78932        -3.33608        -0.43159
   C      -10.11316        -5.35127        -1.92644
   C      -11.00256        -6.32184        -2.23887
   C      -12.00136        -6.40242        -1.19557
   C      -13.18670        -7.10182        -1.21509
   C      -14.41098        -6.71030        -0.58993
   C      -15.42893        -7.44108        -1.12808
   C      -14.88607        -8.38883        -2.05538
   N      -15.66359        -9.34917        -2.71817
   O      -15.10071       -10.15008        -3.45526
   O      -16.86599        -9.33222        -2.52672
   C      -13.49668        -8.24952        -2.08838
   C      -12.57298        -9.12639        -2.67894
   C      -11.30323        -9.31438        -2.19346
   C      -10.31735       -10.18899        -2.67750
   S       -8.86446       -10.30943        -1.73363
   C       -8.14550       -11.42178        -2.86373
   C       -9.01220       -11.64782        -3.95655
   C      -10.23499       -11.00231        -3.82821
   C      -11.34384       -11.16720        -4.81421
   C      -11.06596       -12.30366        -5.80861
   O      -11.18852       -13.58395        -5.22754
   C      -12.51022       -14.06508        -5.13362
   C       -9.61835       -12.18728        -6.31997
   O       -9.32333       -10.90472        -6.82566
   C       -9.82218       -10.64451        -8.11596
   C       -8.66309       -12.46311        -5.15677
   C       -6.89157       -11.93512        -2.50436
   C       -6.15416       -12.88011        -3.17945
   C       -4.88974       -13.38168        -2.83723
   C       -3.92666       -13.02265        -1.88340
   N       -4.01154       -12.22851        -0.72544
   O       -2.96170       -11.88225        -0.21516
   O       -5.10991       -11.94554        -0.26812
   C       -2.67448       -13.62083        -2.23944
   C       -2.81837       -14.34719        -3.38425
   C       -4.18997       -14.31412        -3.76751
   C       -4.77607       -15.08418        -4.74968
   C       -6.14332       -15.53192        -4.83757
   C       -6.27106       -16.33523        -5.91959
   C       -4.99226       -16.41393        -6.58938
   N       -4.85387       -17.01508        -7.85881
   O       -5.85788       -17.49444        -8.35382
   O       -3.76133       -16.99841        -8.40042
   C       -4.05492       -15.69446        -5.87483
   C       -2.69371       -15.37706        -6.20734
   C       -1.69576       -16.24060        -6.49541
   C       -1.80742       -17.65624        -6.43141
   C       -0.78145       -18.54013        -6.52516
   C       -1.04404       -19.96752        -6.87585
   O       -2.09060       -20.55750        -6.77299
   C        0.24308       -20.46526        -7.40619
   C        0.51778       -21.65657        -8.01341
   C        1.83133       -21.90836        -8.46976
   C        2.83940       -20.91657        -8.28820
   C        4.14513       -21.17280        -8.75275
   C        4.43734       -22.35816        -9.36693
   C        3.44018       -23.33885        -9.54506
   C        2.16446       -23.12014        -9.10584
   F        3.75514       -24.49014       -10.15128
   F        5.67786       -22.59992        -9.80740
   C        2.52857       -19.69497        -7.64878
   C        1.24987       -19.47491        -7.21169
   C        0.65275       -18.34190        -6.51306
   C        1.32570       -17.40620        -5.77235
   C        0.67632       -16.51671        -4.89111
   N        0.17413       -15.81602        -4.13303
   C        2.73231       -17.30966        -5.72865
   N        3.87205       -17.18822        -5.68019
   H      -12.23456        -8.75761         7.88045
   H       -9.62655       -11.44816         4.63274
   H      -12.83151        -7.17061         6.12245
   H      -10.22217        -9.84840         2.81792
   H      -12.55287        -4.24350         1.37129
   H       -9.26746        -5.01484        -2.49448
   H      -11.04343        -6.88129        -3.15275
   H      -14.51282        -5.88813         0.09272
   H      -16.47816        -7.35227        -0.91700
   H      -12.96527        -9.74720        -3.46821
   H      -11.02507        -8.77750        -1.29442
   H      -11.48159       -10.23501        -5.36775
   H      -12.27494       -11.39475        -4.29170
   H      -11.77118       -12.21569        -6.64955
   H      -12.43496       -15.07147        -4.72768
   H      -12.98603       -14.10466        -6.11999
   H      -13.12832       -13.45456        -4.46762
   H       -9.45480       -12.94763        -7.09956
   H       -9.40504        -9.68421        -8.41240
   H      -10.91538       -10.58142        -8.13160
   H       -9.50208       -11.41552        -8.82578
   H       -7.65484       -12.21588        -5.49216
   H       -8.72439       -13.52665        -4.91683
   H       -6.50311       -11.56012        -1.56616
   H       -6.55465       -13.27589        -4.09683
   H       -1.77873       -13.50179        -1.65899
   H       -2.05483       -14.94733        -3.83998
   H       -6.89517       -15.35531        -4.09334
   H       -7.14786       -16.84976        -6.26317
   H       -2.45539       -14.32045        -6.16931
   H       -0.73463       -15.82795        -6.76543
   H       -2.79536       -18.09128        -6.36390
   H       -0.25677       -22.39611        -8.14744
   H        4.92072       -20.43446        -8.62189
   H        1.41295       -23.88037        -9.25046
   H        3.30568       -18.95618        -7.53142
*
