# ORCA input file
# SCF done       -237.140406485508          0.000920420210
! CAM-B3LYP def2-SVP def2/J RIJCOSX Grid4 TightSCF
%maxcore 5000
%tddft
    Mode sTDDFT
    Ethresh 5.0
    maxcore 5000
end

%pal
  nprocs 6
  end
* xyz 0 1
   C      -10.29563       -12.35006         2.67349
   C      -10.56110       -12.91131         3.89050
   F      -11.33979       -13.99694         3.97575
   C      -10.02056       -12.35758         5.06945
   F      -10.29719       -12.93021         6.24762
   C       -9.22253       -11.24946         5.01429
   C       -8.92971       -10.64739         3.77490
   C       -9.47531       -11.20679         2.58231
   C       -9.19624       -10.61990         1.32843
   C       -8.39068        -9.51127         1.26820
   C       -7.84156        -8.96525         2.46191
   C       -8.10244        -9.50595         3.68817
   C       -6.98689        -7.80626         2.13534
   O       -6.39235        -7.10260         2.91326
   C       -7.00583        -7.71516         0.64192
   C       -7.96698        -8.69044         0.14246
   C       -8.48513        -8.74464        -1.12236
   C       -9.43014        -9.70516        -1.54687
   N      -10.19669       -10.45714        -1.95108
   C       -8.23447        -7.81211        -2.15092
   N       -8.13683        -7.06443        -3.01748
   C       -6.29724        -6.84190        -0.10123
   C       -5.41840        -5.81417         0.43395
   C       -4.37826        -6.11767         1.31925
   C       -3.57394        -5.08998         1.75005
   C       -3.78846        -3.77186         1.33007
   C       -2.77904        -2.90650         1.99157
   O       -2.61478        -1.71737         1.89604
   N       -2.01014        -3.76468         2.76005
   C       -2.40750        -5.09213         2.67035
   O       -1.87025        -6.01423         3.22499
   C       -0.91974        -3.31962         3.60259
   C       -1.39459        -3.06603         5.02863
   C       -4.79075        -3.45767         0.44384
   C       -5.61207        -4.49436        -0.01731
   C       -6.71106        -4.23454        -0.93501
   N       -6.57421        -3.51970        -2.08734
   C       -5.36869        -2.94776        -2.64373
   C       -5.38140        -1.42365        -2.56493
   C       -7.78221        -3.48058        -2.82644
   O       -7.88282        -2.92386        -3.89748
   C       -8.71914        -4.21009        -2.00772
   C       -8.03096        -4.66623        -0.85013
   C       -8.99541        -5.35313        -0.01227
   O       -8.90135        -5.92502         1.05673
   N      -10.20202        -5.26151        -0.72216
   C      -11.43131        -5.79300        -0.18278
   C      -11.79706        -7.15046        -0.77741
   C      -10.05294        -4.60403        -1.92335
   C      -11.10063        -4.41883        -2.85335
   C      -10.89681        -3.87709        -4.08726
   C      -11.89986        -3.71968        -5.07138
   C      -11.68219        -3.31703        -6.37444
   C      -12.91466        -3.32368        -7.08397
   C      -13.94493        -3.72644        -6.10368
   C      -13.32936        -3.97097        -4.91959
   C      -15.32229        -3.84064        -6.32462
   N      -16.45868        -3.93772        -6.46121
   C      -13.12202        -3.06935        -8.42074
   C      -14.35168        -3.12734        -9.13739
   C      -14.12446        -2.84115       -10.46841
   C      -12.69402        -2.60762       -10.62904
   C      -12.08966        -2.73588        -9.41949
   C      -10.71550        -2.58762        -9.19521
   N       -9.58408        -2.45323        -9.05186
   C      -15.12680        -2.86142       -11.47337
   C      -15.01793        -2.46082       -12.76898
   C      -13.97617        -1.68324       -13.33352
   C      -13.68165        -1.56489       -14.65915
   C      -12.87703        -0.41691       -15.15659
   O      -12.23659         0.36036       -14.48786
   C      -13.07923        -0.41031       -16.62031
   C      -12.63716         0.49373       -17.54247
   C      -12.97331         0.30875       -18.90240
   C      -13.77003        -0.81116       -19.28000
   C      -14.10654        -0.98681       -20.63726
   C      -13.66973        -0.09480       -21.57595
   C      -12.88019         1.01134       -21.20179
   C      -12.53865         1.21025       -19.89341
   F      -12.46666         1.86956       -22.14326
   F      -13.98911        -0.26391       -22.86524
   C      -14.20871        -1.73469       -18.30379
   C      -13.86249        -1.54087       -16.99333
   C      -14.12525        -2.33767       -15.79751
   C      -14.52006        -3.65026       -15.77957
   C      -14.44827        -4.47040       -14.63352
   N      -14.34563        -5.18948       -13.74523
   C      -14.92403        -4.36250       -16.92786
   N      -15.28641        -4.97077       -17.83107
   H      -10.71798       -12.78568         1.78140
   H       -8.81659       -10.83828         5.92520
   H       -9.61952       -11.06860         0.44395
   H       -7.67860        -9.06887         4.57933
   H       -6.41695        -6.84052        -1.17749
   H       -4.19953        -7.13086         1.63991
   H       -0.52331        -2.40212         3.16144
   H       -0.15490        -4.09997         3.59066
   H       -2.16443        -2.29790         5.03874
   H       -0.56046        -2.73344         5.63961
   H       -1.80018        -3.97971         5.45660
   H       -4.95845        -2.43533         0.14544
   H       -5.32911        -3.24399        -3.69674
   H       -4.50492        -3.36364        -2.12132
   H       -6.21802        -1.03481        -3.13914
   H       -4.45921        -1.02990        -2.98222
   H       -5.47363        -1.07865        -1.53774
   H      -12.23495        -5.06999        -0.34841
   H      -11.27181        -5.89602         0.89447
   H      -11.79611        -7.11699        -1.86473
   H      -12.78507        -7.44731        -0.43670
   H      -11.08599        -7.90708        -0.45701
   H      -12.08534        -4.76055        -2.56969
   H       -9.90008        -3.56453        -4.36860
   H      -10.72914        -3.06219        -6.79467
   H      -13.81654        -4.28383        -4.01492
   H      -15.30577        -3.34802        -8.70004
   H      -12.19300        -2.41894       -11.55916
   H      -16.06259        -3.31029       -11.16540
   H      -15.83713        -2.71202       -13.43269
   H      -13.42526        -1.01854       -12.67736
   H      -12.03759         1.33837       -17.23898
   H      -14.70711        -1.82995       -20.94103
   H      -11.93371         2.06163       -19.62348
   H      -14.81435        -2.57042       -18.61631
*
