# ORCA input file
# SCF done       -244.150520105077          0.000476264051
! CAM-B3LYP def2-SVP def2/J RIJCOSX Grid4 TightSCF
%maxcore 5000
%tddft
    Mode sTDDFT
    Ethresh 5.0
    maxcore 5000
end

%pal
  nprocs 6
  end
* xyz 0 1
   C      -17.84535         0.73225        -1.34718
   C      -18.74457         1.38185        -0.54921
   F      -19.60110         2.26260        -1.07893
   C      -18.78227         1.13458         0.83896
   F      -19.67345         1.78630         1.59493
   C      -17.91917         0.24131         1.40934
   C      -16.97976        -0.44377         0.61403
   C      -16.94133        -0.19505        -0.78984
   C      -16.00886        -0.87079        -1.60765
   C      -15.14232        -1.76853        -1.03922
   C      -15.18860        -2.01257         0.36424
   C      -16.07643        -1.37076         1.17898
   C      -14.16297        -3.00658         0.72090
   O      -13.74827        -3.29554         1.81733
   C      -13.63597        -3.50104        -0.59172
   C      -14.10366        -2.60043        -1.63325
   C      -13.63341        -2.52649        -2.91525
   C      -12.56097        -3.30350        -3.40339
   N      -11.67982        -3.90416        -3.82821
   C      -14.12533        -1.62874        -3.88770
   N      -14.48574        -0.92007        -4.71445
   C      -12.92863        -4.64230        -0.73003
   C      -12.68851        -5.59106         0.31893
   C      -13.57875        -6.17005         1.20075
   N      -14.96706        -5.95350         1.32630
   O      -15.55781        -6.61973         2.15315
   O      -15.50946        -5.14418         0.58899
   C      -12.89801        -7.18874         1.96923
   C      -11.62032        -7.27999         1.53357
   C      -11.41519        -6.30314         0.49271
   C      -10.23461        -5.96962        -0.13410
   C       -9.91359        -4.67914        -0.65495
   C       -8.57090        -4.61836        -0.89651
   C       -7.99099        -5.89110        -0.61825
   N       -6.62268        -6.15994        -0.83012
   O       -6.20871        -7.29006        -0.62629
   O       -5.92804        -5.23237        -1.19751
   C       -8.99317        -6.77585        -0.19564
   C       -8.84982        -8.15853        -0.05087
   C       -9.85573        -9.09646        -0.10127
   C       -9.61682       -10.46495         0.02069
   S       -8.04010       -11.16763         0.31307
   C       -8.63097       -12.81372         0.27830
   C      -10.02928       -12.81322         0.06409
   C      -10.54728       -11.51148        -0.06817
   O      -11.87446       -11.53944        -0.24835
   C      -12.22478       -12.84611        -0.23059
   C      -11.15741       -13.67439        -0.04608
   C       -7.74730       -13.86263         0.49695
   C       -8.16514       -15.17688         0.52295
   C       -7.43134       -16.29228         0.92133
   C       -8.00256       -17.51055         1.34413
   N       -9.34050       -17.90527         1.28932
   O       -9.63499       -18.97359         1.80177
   O      -10.16694       -17.16525         0.76247
   C       -7.00031       -18.29489         1.98551
   C       -5.82648       -17.59812         1.99290
   C       -6.00501       -16.37043         1.28405
   C       -4.98679       -15.52205         0.89108
   C       -4.88896       -14.81251        -0.35457
   C       -3.61298       -14.37169        -0.50200
   C       -2.86977       -14.70682         0.68812
   N       -1.52462       -14.33348         0.89417
   O       -0.95939       -13.76309        -0.01858
   O       -1.00964       -14.61791         1.96094
   C       -3.68727       -15.39173         1.56630
   C       -3.41024       -15.78458         2.91309
   C       -4.31403       -15.75158         3.92048
   C       -5.58178       -15.08940         3.80924
   C       -6.82117       -15.40581         4.25767
   C       -7.94930       -14.58766         3.72217
   O       -7.86573       -13.47686         3.24163
   C       -9.13464       -15.44777         3.80224
   C      -10.37899       -15.23899         3.27810
   C      -11.33910       -16.27013         3.35737
   C      -10.99540       -17.49582         3.99997
   C      -11.94054       -18.53936         4.03605
   C      -13.16668       -18.37553         3.45481
   C      -13.50607       -17.16119         2.82345
   C      -12.61472       -16.12680         2.77988
   F      -14.71528       -17.02554         2.26507
   F      -14.06414       -19.36562         3.48365
   C       -9.70955       -17.67101         4.56188
   C       -8.78688       -16.66324         4.45931
   C       -7.39445       -16.57951         4.89829
   C       -6.82186       -17.40097         5.82753
   C       -5.55337       -17.19508         6.40306
   N       -4.53925       -17.04792         6.91967
   C       -7.47308       -18.51639         6.40046
   N       -7.94331       -19.43779         6.89562
   H      -17.82974         0.93358        -2.40697
   H      -17.96144         0.06304         2.47237
   H      -16.00773        -0.66859        -2.66692
   H      -16.09445        -1.57423         2.23862
   H      -12.51802        -4.91159        -1.69573
   H      -13.37327        -7.74770         2.75233
   H      -10.84383        -7.88932         1.95272
   H      -10.59980        -3.85772        -0.71596
   H       -8.00877        -3.77060        -1.24075
   H       -7.82969        -8.52200         0.01137
   H      -10.88007        -8.80481        -0.29025
   H      -13.26661       -13.06564        -0.36256
   H      -11.19363       -14.74398         0.00310
   H       -6.72417       -13.59961         0.71940
   H       -9.20975       -15.36736         0.32973
   H       -7.17688       -19.27585         2.38548
   H       -4.88411       -17.95366         2.36137
   H       -5.66733       -14.77611        -1.09205
   H       -3.18511       -13.85727        -1.34121
   H       -2.39957       -16.11391         3.11691
   H       -4.04057       -16.18780         4.86979
   H       -5.56716       -14.17860         3.21331
   H      -10.61865       -14.30798         2.78738
   H      -11.69069       -19.47813         4.50386
   H      -12.88565       -15.20632         2.28712
   H       -9.47686       -18.61659         5.02339
*
