# ORCA input file
# SCF done       -221.236477760353          0.000687334773
! CAM-B3LYP def2-SVP def2/J RIJCOSX Grid4 TightSCF
%maxcore 5000
%tddft
    Mode sTDDFT
    Ethresh 5.0
    maxcore 5000
end

%pal
  nprocs 6
  end
* xyz 0 1
   C      -11.54874        -0.58750         0.55451
   C      -12.47847        -0.25831        -0.39077
   F      -13.61252         0.35938        -0.03461
   C      -12.25867        -0.56177        -1.75008
   F      -13.18820        -0.22588        -2.65479
   C      -11.11142        -1.19047        -2.14460
   C      -10.13305        -1.54296        -1.19433
   C      -10.35379        -1.23665         0.18067
   C       -9.38750        -1.57982         1.15150
   C       -8.23356        -2.21084         0.76015
   C       -8.02522        -2.51651        -0.61322
   C       -8.94009        -2.19521        -1.57396
   C       -6.73712        -3.20815        -0.77850
   O       -6.22112        -3.55216        -1.81345
   C       -6.20114        -3.38286         0.61126
   C       -7.08837        -2.67762         1.52887
   C       -6.88756        -2.47923         2.86674
   C       -5.73403        -2.88029         3.56841
   N       -4.79986        -3.14770         4.18149
   C       -7.79140        -1.80502         3.71735
   N       -8.48119        -1.26604         4.45887
   C       -5.14231        -4.15982         0.91115
   C       -4.44955        -4.96802        -0.08460
   C       -5.19714        -5.86701        -0.84898
   C       -6.64403        -6.19031        -0.80625
   O       -7.50782        -5.74911        -0.09570
   O       -6.88607        -7.13858        -1.73281
   C       -5.70848        -7.49301        -2.43873
   C       -4.62461        -6.67269        -1.82262
   C       -3.26367        -6.62502        -2.07070
   C       -2.50516        -5.77704        -1.29373
   C       -3.05613        -4.94591        -0.29697
   C       -2.10547        -4.14797         0.43754
   C       -2.28960        -3.15869         1.33977
   C       -1.16503        -2.57273         1.99545
   N       -1.26454        -1.60550         2.96319
   C       -2.47390        -1.02282         3.47652
   C       -0.00126        -1.21097         3.44869
   O        0.16594        -0.31752         4.25403
   C        0.92857        -2.03543         2.72107
   C        0.19096        -2.84478         1.81785
   C        1.14759        -3.60748         1.05512
   O        1.01348        -4.41952         0.15647
   N        2.40505        -3.21401         1.55280
   C        3.60226        -3.82545         1.04412
   C        2.28614        -2.28057         2.55433
   C        3.30863        -1.61898         3.29615
   C        4.61134        -1.50669         2.97869
   C        5.55644        -0.70478         3.73895
   C        5.60508        -0.72028         5.13342
   C        4.86946        -1.54761         6.12299
   O        4.06403        -2.41697         5.94478
   O        5.30517        -1.20104         7.35596
   C        6.30523        -0.19967         7.29832
   C        6.52195         0.05056         5.84169
   C        7.45362         0.83798         5.19317
   C        7.45040         0.82964         3.80932
   C        6.51333         0.09765         3.07812
   C        6.51708         0.18384         1.62070
   C        5.39987         0.35306         0.89250
   C        4.13902         0.69453         1.48912
   C        2.91996         0.37845         0.98503
   C        2.72221        -0.55394        -0.14984
   O        3.58522        -1.16036        -0.75155
   C        1.26547        -0.63367        -0.35327
   C        0.56800        -1.40255        -1.24097
   C       -0.84192        -1.33403        -1.24612
   C       -1.49745        -0.44164        -0.35007
   C       -2.90332        -0.35573        -0.38214
   C       -3.62571        -1.12394        -1.25073
   C       -2.97947        -2.02028        -2.12458
   C       -1.61512        -2.12111        -2.11969
   F       -3.69576        -2.76384        -2.97307
   F       -4.96411        -1.01381        -1.26324
   C       -0.75065         0.33196         0.56495
   C        0.61451         0.21877         0.58400
   C        1.61579         0.80223         1.47138
   C        1.35570         1.56370         2.57839
   C        2.32682         1.97806         3.51367
   N        3.07782         2.33060         4.30751
   C        0.06614         2.02410         2.92777
   N       -0.95473         2.46883         3.20376
   H      -11.73299        -0.34782         1.59015
   H      -10.95823        -1.41638        -3.18822
   H       -9.58721        -1.34016         2.18354
   H       -8.75446        -2.43973        -2.60855
   H       -4.81080        -4.28229         1.93460
   H       -5.85070        -7.26118        -3.50016
   H       -5.54592        -8.57124        -2.33249
   H       -2.81152        -7.23739        -2.83468
   H       -1.43627        -5.73752        -1.44333
   H       -1.07779        -4.41521         0.22531
   H       -3.26663        -2.78155         1.59975
   H       -3.08028        -1.76894         3.99517
   H       -3.06118        -0.57265         2.67430
   H       -2.17669        -0.24552         4.18084
   H        3.29098        -4.70651         0.48092
   H        4.25802        -4.12431         1.86124
   H        4.12393        -3.14900         0.36117
   H        2.92268        -1.07898         4.15029
   H        5.00608        -1.96249         2.08277
   H        7.20186        -0.56900         7.80790
   H        5.94661         0.69303         7.82372
   H        8.16717         1.43006         5.74392
   H        8.17081         1.42769         3.27082
   H        7.47411         0.07185         1.12965
   H        5.43125         0.26281        -0.18437
   H        4.19624         1.28741         2.39224
   H        1.08476        -2.06101        -1.92201
   H       -3.41707         0.33239         0.27197
   H       -1.13153        -2.80730        -2.79670
   H       -1.27520         0.99006         1.23822
*
