# ORCA input file
# SCF done       -230.339874912315          0.000850507885
! CAM-B3LYP def2-SVP def2/J RIJCOSX Grid4 TightSCF
%maxcore 5000
%tddft
    Mode sTDDFT
    Ethresh 5.0
    maxcore 5000
end

%pal
  nprocs 6
  end
* xyz 0 1
   C        2.79593        -1.26826         2.10458
   C        2.96641         0.06633         1.86351
   F        4.11565         0.66698         2.18962
   C        1.93706         0.82663         1.26964
   F        2.13363         2.13037         1.04606
   C        0.75166         0.24029         0.92391
   C        0.54632        -1.13344         1.15804
   C        1.58486        -1.90286         1.76124
   C        1.39906        -3.28095         2.01307
   C        0.20878        -3.87328         1.67667
   C       -0.81882        -3.09731         1.06911
   C       -0.66638        -1.76516         0.80761
   C       -1.98722        -3.94582         0.80352
   O       -2.97930        -3.65504         0.17641
   C       -1.63542        -5.29623         1.34479
   C       -0.26492        -5.24420         1.83322
   C        0.43779        -6.27482         2.39536
   C        1.75842        -6.15878         2.88354
   N        2.83230        -6.13031         3.28541
   C       -0.04723        -7.59010         2.56394
   N       -0.38253        -8.67467         2.73165
   C       -2.43483        -6.38778         1.24008
   C       -3.83347        -6.35255         0.95994
   O       -4.40486        -7.41466         0.35729
   C       -5.73238        -7.21227         0.27835
   C       -6.05014        -5.99502         0.85946
   C       -4.82542        -5.43716         1.30407
   C       -4.67112        -4.25235         2.04580
   N       -4.55647        -3.32050         2.70073
   C       -7.34892        -5.25715         0.91788
   F       -8.29255        -5.79750         0.13387
   F       -7.84467        -5.16393         2.15090
   F       -7.18949        -3.99591         0.47619
   C       -6.57823        -8.20115        -0.33068
   N       -6.22947        -8.93223        -1.43777
   C       -5.01867        -8.80753        -2.21384
   C       -4.99772        -7.52243        -3.03641
   C       -7.27629        -9.78947        -1.83544
   O       -7.22915       -10.49330        -2.82452
   C       -8.29538        -9.58689        -0.83467
   C       -7.84100        -8.59679         0.07008
   C       -8.84328        -8.46450         1.11448
   O       -8.87714        -7.80454         2.12269
   N       -9.87067        -9.35900         0.72772
   C      -11.03762        -9.51151         1.56488
   C      -10.94226       -10.74866         2.45419
   C       -9.54399       -10.04216        -0.41355
   C      -10.23746       -11.06210        -1.11320
   C      -11.43999       -11.65008        -0.88904
   C      -11.85978       -12.73561        -1.70357
   O      -11.05551       -13.19766        -2.67587
   C      -11.62602       -14.27746        -3.24349
   C      -12.85829       -14.50990        -2.64653
   C      -13.01371       -13.52302        -1.64503
   C      -14.08175       -13.32738        -0.75455
   N      -14.93417       -13.12332        -0.01755
   C      -13.81070       -15.59613        -3.01440
   F      -13.20361       -16.79016        -3.09613
   F      -14.81637       -15.72221        -2.14997
   F      -14.36123       -15.37587        -4.22543
   C      -10.95921       -14.95211        -4.30686
   C       -9.66696       -14.77098        -4.66767
   C       -9.20704       -15.18310        -6.03725
   O       -9.75203       -15.96692        -6.77096
   C       -8.01017       -14.35770        -6.29152
   C       -7.29914       -14.20240        -7.44802
   C       -6.22281       -13.28690        -7.47224
   C       -5.91472       -12.53134        -6.30195
   C       -4.86358       -11.59402        -6.34831
   C       -4.14416       -11.42069        -7.49674
   C       -4.44155       -12.17555        -8.65005
   C       -5.45903       -13.08828        -8.63956
   F       -3.71867       -11.98621        -9.76043
   F       -3.14677       -10.52767        -7.53670
   C       -6.65443       -12.72245        -5.11366
   C       -7.67288       -13.63652        -5.10953
   C       -8.57077       -14.04955        -4.03962
   C       -8.27864       -13.99588        -2.70665
   C       -9.07420       -14.59534        -1.70600
   N       -9.68891       -15.07859        -0.86645
   C       -7.10482       -13.41463        -2.17827
   N       -6.17168       -12.97108        -1.68059
   H        3.59333        -1.83352         2.56125
   H       -0.02646         0.83467         0.47137
   H        2.20522        -3.83317         2.46814
   H       -1.46638        -1.20399         0.34976
   H       -2.03025        -7.38343         1.36975
   H       -5.00567        -9.67686        -2.87646
   H       -4.15293        -8.85810        -1.54986
   H       -5.86387        -7.48124        -3.69286
   H       -4.09812        -7.49101        -3.64466
   H       -5.00949        -6.64401        -2.39439
   H      -11.93316        -9.53187         0.94000
   H      -11.07182        -8.61674         2.19326
   H      -10.79987       -11.65200         1.86536
   H      -11.85271       -10.85078         3.03756
   H      -10.10293       -10.64686         3.13739
   H       -9.66691       -11.41826        -1.96313
   H      -12.11432       -11.37134        -0.09650
   H      -11.56101       -15.60709        -4.92438
   H       -7.55918       -14.76134        -8.33392
   H       -4.62445       -11.01201        -5.47253
   H       -5.67547       -13.65457        -9.53185
   H       -6.43634       -12.11899        -4.24699
*
