# ORCA input file
# SCF done       -176.897111426361          0.000402499914
! CAM-B3LYP def2-SVP def2/J RIJCOSX Grid4 TightSCF
%maxcore 5000
%tddft
    Mode sTDDFT
    Ethresh 5.0
    maxcore 5000
end

%pal
  nprocs 6
  end
* xyz 0 1
   N        1.06263        -2.06296         3.42830
   C        1.14721        -0.72691         2.85017
   C       -0.03376         0.17065         3.21266
   C        0.00579         1.49017         2.44553
   N       -1.20768         2.23122         2.74867
   S       -2.32451         1.84967         1.49792
   N       -1.11545         1.81504         0.27774
   C        0.07316         1.24394         0.89014
   C        0.11527        -0.24755         0.56511
   C        1.24196        -0.95236         1.31118
   N        1.15484        -2.38422         1.02951
   S        0.16562        -3.03071         2.28443
   N        2.41448        -2.96723         0.90789
   C        2.45060        -4.14318         0.15648
   C        1.39081        -4.66546        -0.51822
   S        1.78976        -6.11811        -1.34635
   C        3.41230        -6.02830        -0.78842
   C        3.64024        -4.93013        -0.00951
   N        4.87003        -4.65449         0.56534
   C        5.36562        -3.41145         0.84642
   C        6.60479        -3.19443         1.31895
   C        7.15336        -1.90803         1.67891
   C        8.53346        -1.80608         1.91463
   C        9.08524        -0.59787         2.25968
   C        8.27723         0.54184         2.40309
   C        6.90900         0.45445         2.18553
   C        6.36259        -0.75964         1.82552
   C        9.11865         1.66123         2.75413
   C       10.45461         1.22071         2.81767
   C       10.53057        -0.27061         2.57350
   C       11.46711        -0.62095         1.40823
   C       11.03257         0.03365         0.10181
   C       10.90101        -1.04725         3.85824
   C       12.26400        -0.73112         4.45958
   C       11.46585         2.11968         3.04172
   C       11.17032         3.47834         3.26845
   C        9.82704         3.88772         3.24096
   C        8.81011         2.99756         2.97426
   C       12.25560         4.38415         3.50775
   C       12.16350         5.69828         3.84680
   C       13.28006         6.52458         4.05945
   C       13.20990         7.84289         4.43516
   C       14.29228         8.72666         4.65769
   C       13.92434         9.98188         5.04014
   C       12.52919        10.16453         5.14580
   S       11.69274         8.68423         4.72883
   C       11.85383        11.30772         5.53329
   C       12.41045        12.55216         5.90103
   C       11.49371        13.49131         6.26641
   C       10.14982        13.05314         6.21097
   S       10.11251        11.37778         5.64853
   C        8.96675        13.68290         6.50313
   C        8.73449        14.97858         7.01709
   C        7.38906        15.46711         7.20699
   C        7.43563        16.73845         7.73189
   C        6.41167        17.64291         8.09970
   C        6.78680        18.85232         8.61180
   C        6.02454        19.97309         9.07544
   C        6.89307        20.95821         9.49731
   C        8.23351        20.48059         9.30999
   C        8.18775        19.20606         8.77455
   C        9.20838        18.30888         8.40885
   C        8.83629        17.08987         7.89361
   C        9.60206        15.98316         7.44255
   C        6.50182        22.24002        10.03112
   C        7.33210        23.19829        10.43433
   H        0.60849        -2.07616         4.33332
   H        2.07598        -0.27707         3.22535
   H       -0.01662         0.38897         4.28255
   H       -0.97366        -0.33881         2.99224
   H        0.87412         2.07178         2.77271
   H       -1.05202         3.23362         2.79927
   H       -0.95581         2.74407        -0.09945
   H        0.96174         1.72968         0.47317
   H        0.26138        -0.37597        -0.50713
   H       -0.84270        -0.70090         0.81906
   H        2.20569        -0.60080         0.93068
   H        2.91406        -3.05441         1.79614
   H        0.39540        -4.27603        -0.56409
   H        4.11438        -6.78912        -1.06448
   H        5.53370        -5.41674         0.56465
   H        4.68321        -2.60181         0.64743
   H        7.26930        -4.04157         1.43995
   H        9.15206        -2.68627         1.80703
   H        6.27896         1.32497         2.29883
   H        5.29658        -0.82675         1.66729
   H       11.48500        -1.70595         1.28322
   H       12.47930        -0.29361         1.64989
   H       10.03234        -0.29124        -0.17608
   H       11.71776        -0.23364        -0.69974
   H       11.02430         1.11689         0.20219
   H       10.85260        -2.11377         3.62559
   H       10.13181        -0.83912         4.60691
   H       13.06447        -0.91620         3.74793
   H       12.43131        -1.36678         5.32690
   H       12.31197         0.30390         4.78634
   H       12.50017         1.80720         3.03981
   H        9.58543         4.92560         3.40968
   H        7.78548         3.33694         2.93042
   H       13.24854         3.95855         3.41599
   H       11.19542         6.16299         3.97627
   H       14.26711         6.10167         3.92169
   H       15.31085         8.40474         4.52841
   H       14.61813        10.77596         5.25119
   H       13.47223        12.72332         5.88717
   H       11.75660        14.48920         6.56045
   H        8.07139        13.09945         6.32374
   H        6.50320        14.90625         6.96584
   H        5.37266        17.37029         7.97550
   H        4.95095        20.02476         9.08704
   H        9.12597        21.02911         9.54959
   H       10.24753        18.57949         8.53404
   H       10.67371        15.95474         7.46090
   H        5.43206        22.39966        10.09310
   H        8.40199        23.08707        10.39178
   H        6.96733        24.13327        10.82331
*
