# ORCA input file
# SCF done       -191.366325076181          0.000927754759
! CAM-B3LYP def2-SVP def2/J RIJCOSX Grid4 TightSCF
%maxcore 5000
%tddft
    Mode sTDDFT
    Ethresh 5.0
    maxcore 5000
end

%pal
  nprocs 6
  end
* xyz 0 1
   C      -10.81980        -1.41922        -9.13268
   C      -11.61090        -2.49191        -8.81416
   C      -12.32576        -3.25856        -9.75718
   N      -12.92839        -3.91506       -10.48043
   C      -11.81519        -2.95841        -7.49927
   N      -12.01031        -3.36639        -6.44430
   C      -10.59313        -0.89187       -10.47620
   C       -9.74271         0.24109       -10.39000
   C       -9.34294         0.95378       -11.49477
   C       -9.80007         0.52811       -12.74612
   C      -10.64762        -0.60315       -12.82326
   C      -11.05439        -1.32228       -11.70499
   S      -11.09027        -0.95913       -14.46374
   C      -10.14376         0.39610       -15.01834
   C       -9.52764         1.08258       -14.02610
  Br      -10.05685         0.77718       -16.85210
   C       -9.39310         0.46630        -8.98271
   O       -8.67875         1.35210        -8.52410
   C      -10.06384        -0.59183        -8.21980
   C       -9.91010        -0.70780        -6.86010
   N       -9.14905         0.16580        -6.19103
   C       -8.86781         0.15935        -4.86441
   S       -9.49509        -1.05654        -3.79904
   C       -8.64502        -0.30719        -2.48503
   N       -8.77817        -0.89379        -1.21474
   O       -8.19052        -0.37380        -0.28853
   O       -9.47965        -1.88628        -1.14766
   C       -7.92771         0.79886        -2.84478
   C       -8.04172         1.09469        -4.22007
   C       -7.43267         2.19074        -4.91056
   C       -6.54434         3.05956        -4.37897
   C       -5.96656         4.14585        -5.10735
   C       -4.98901         4.96295        -4.49175
   C       -4.37878         6.07626        -5.17367
   N       -3.54684         6.89871        -4.50745
   C       -3.22706         6.61667        -3.27415
   C       -3.74732         5.44122        -2.62869
   N       -4.62055         4.67636        -3.23047
   C       -3.33007         5.11717        -1.31335
   N       -2.96932         4.88549        -0.25131
   C       -2.37267         7.49560        -2.56121
   N       -1.68924         8.18607        -1.95534
   C       -4.67931         6.37680        -6.51303
   C       -5.63787         5.56836        -7.13797
   C       -6.28507         4.47636        -6.44231
   N       -7.15710         3.84979        -7.23788
   S       -7.14065         4.52944        -8.68638
   N       -6.04465         5.65845        -8.40885
   C       -4.04596         7.49008        -7.19543
   C       -2.68259         7.70921        -7.18229
   F       -1.86724         6.81664        -6.59913
   C       -2.07472         8.79872        -7.82464
   F       -0.73308         8.85095        -7.73238
   C       -2.77289         9.78126        -8.51720
   C       -4.18549         9.58011        -8.54621
   C       -4.80620         8.44835        -7.90511
   N       -6.13077         8.46179        -8.02658
   S       -6.55833         9.74667        -8.88728
   N       -5.09232        10.35961        -9.13100
   C       -2.15063        10.91554        -9.14936
   C       -0.76767        11.14145        -9.33073
   C       -0.59181        12.37603        -9.97549
   C        0.55975        13.05237       -10.37191
   C        0.39832        14.28415       -10.98685
   C        1.33228        15.21114       -11.49467
   C        0.64384        16.31811       -12.01815
   C       -0.73279        16.09376       -11.84301
   C       -0.91676        14.84729       -11.20969
   C       -2.06416        14.17365       -10.81831
   C       -1.90435        12.93573       -10.20097
   C       -2.84005        12.02174        -9.69093
   C        1.28352        17.46428       -12.62058
   C        0.65644        18.52457       -13.12213
   H       -8.69478         1.81073       -11.39816
   H      -11.69916        -2.17784       -11.81633
   H       -8.90533         1.94326       -14.18980
   H      -10.38027        -1.49759        -6.28834
   H       -8.72503         0.89828        -6.78912
   H       -7.35421         1.36840        -2.13690
   H       -7.70813         2.33553        -5.94506
   H       -6.20439         2.96653        -3.35813
   H        0.03180        10.48785        -9.04015
   H        1.54087        12.63199       -10.20184
   H        2.40087        15.09131       -11.48296
   H       -1.52353        16.75804       -12.13888
   H       -3.04697        14.59200       -10.98400
   H       -3.90656        12.13634        -9.69967
   H        2.36516        17.42048       -12.64771
   H       -0.41640        18.61284       -13.11753
   H        1.19944        19.34524       -13.55727
*
