# ORCA input file
# SCF done       -186.650626698288          0.000941492142
! CAM-B3LYP def2-SVP def2/J RIJCOSX Grid4 TightSCF
%maxcore 5000
%tddft
    Mode sTDDFT
    Ethresh 5.0
    maxcore 5000
end

%pal
  nprocs 6
  end
* xyz 0 1
   C       -7.80656        -9.70146        -7.63933
   C       -7.50469        -9.94154        -6.31654
   C       -6.75570       -11.04442        -5.86467
   N       -6.15260       -11.91988        -5.42745
   C       -7.89264        -9.14283        -5.22373
   N       -8.15832        -8.55394        -4.27229
   C       -7.39821       -10.55275        -8.75714
   C       -7.90187        -9.99498        -9.95646
   C       -7.68741       -10.56326       -11.18688
   C       -6.93730       -11.74390       -11.23874
   C       -6.43843       -12.29392       -10.03658
   C       -6.65606       -11.71707        -8.79016
   S       -5.53946       -13.75390       -10.32646
   C       -5.84194       -13.60355       -12.03702
   C       -6.57857       -12.51987       -12.37566
  Br       -5.16007       -14.89587       -13.21476
   C       -8.65357        -8.76039        -9.63916
   O       -9.21430        -8.03992       -10.44416
   C       -8.56550        -8.60578        -8.17746
   C       -9.12570        -7.55923        -7.46477
   C       -9.86234        -6.52405        -8.02163
   C      -10.39411        -5.48424        -7.27748
   C      -11.15153        -4.40181        -7.77196
   C      -11.53990        -3.50793        -6.81412
   C      -11.10431        -3.84470        -5.51826
   S      -10.19279        -5.33803        -5.54730
   C      -11.30629        -3.13695        -4.34258
   C      -11.98639        -1.91247        -4.17579
   C      -11.97936        -1.45101        -2.89300
   C      -11.29653        -2.28458        -1.97513
   S      -10.67629        -3.69518        -2.81479
   C      -11.11577        -2.00198        -0.64143
   C      -10.45043        -2.76222         0.32815
   S      -10.23372        -2.03698         1.92718
   C       -9.39434        -3.43348         2.47836
   C       -9.31464        -4.41014         1.46804
   C       -9.89622        -4.03646         0.26670
   S       -8.48308        -5.84990         1.99527
   C       -8.23076        -5.12687         3.56005
   C       -7.58528        -5.55492         4.71711
   C       -7.61365        -4.59327         5.71265
   S       -8.47014        -3.14473         5.21020
   C       -8.77392        -3.83742         3.65664
   C       -7.03203        -4.65788         6.99712
   S       -6.92205        -3.23860         8.02622
   C       -6.07118        -4.06381         9.30721
   C       -5.90634        -5.39503         8.94480
   C       -6.43665        -5.71526         7.66367
   N       -6.17718        -7.04845         7.49478
   C       -5.53001        -7.45560         8.63342
   N       -5.35004        -6.51557         9.50559
   C       -5.63191        -3.36670        10.45727
   C       -4.95360        -3.97532        11.45820
   C       -4.40681        -3.34375        12.62881
   C       -4.44480        -1.95373        12.83287
   C       -3.85074        -1.41447        13.94549
   C       -3.21835        -2.23654        14.89414
   C       -3.19269        -3.61341        14.71898
   C       -3.77977        -4.15000        13.59239
   C       -2.64103        -1.39370        15.91862
   C       -2.91420        -0.05114        15.60450
   C       -3.77398         0.03947        14.36366
   C       -3.14005         0.92165        13.27847
   C       -1.77371         0.40754        12.83923
   C       -5.21591         0.49005        14.69671
   C       -5.35297         1.87718        15.31025
   C       -2.38462         0.95739        16.37484
   C       -1.60852         0.64884        17.50027
   C       -1.37840        -0.69317        17.81715
   C       -1.87858        -1.71313        17.03262
   C       -1.06629         1.74843        18.28624
   C       -0.35412         1.65838        19.40407
   H       -8.08530       -10.11276       -12.08275
   H       -6.25266       -12.17729        -7.90393
   H       -6.85881       -12.27518       -13.38402
   H       -8.98415        -7.53673        -6.39110
   H      -10.03344        -6.51675        -9.08835
   H      -11.38459        -4.31427        -8.81815
   H      -12.12037        -2.62475        -7.01185
   H      -12.45292        -1.40278        -4.99905
   H      -12.44045        -0.53230        -2.57584
   H      -11.52142        -1.05743        -0.30071
   H       -9.92577        -4.66135        -0.60544
   H       -7.09493        -6.50510         4.81254
   H       -6.42836        -7.62628         6.71169
   H       -5.20777        -8.46953         8.77023
   H       -5.85786        -2.31028        10.48175
   H       -4.78781        -5.04069        11.36607
   H       -4.91922        -1.31324        12.10564
   H       -2.71282        -4.25234        15.44533
   H       -3.75786        -5.21864        13.43445
   H       -3.03048         1.93712        13.66131
   H       -3.80959         0.95846        12.41633
   H       -1.09003         0.37005        13.68464
   H       -1.35060         1.06437        12.08246
   H       -1.85481        -0.59322        12.42068
   H       -5.64323        -0.24173        15.38759
   H       -5.79809         0.44891        13.77308
   H       -4.85874         1.92366        16.27668
   H       -6.40707         2.10201        15.45953
   H       -4.93521         2.64191        14.66067
   H       -2.54349         1.99463        16.11717
   H       -0.78245        -0.94050        18.68175
   H       -1.67051        -2.74403        17.27842
   H       -1.28932         2.73292        17.89137
   H       -0.09824         0.71814        19.86122
   H       -0.00060         2.53873        19.91292
*
