# ORCA input file
# SCF done       -203.227163945689          0.000706383910
! CAM-B3LYP def2-SVP def2/J RIJCOSX Grid4 TightSCF
%maxcore 5000
%tddft
    Mode sTDDFT
    Ethresh 5.0
    maxcore 5000
end

%pal
  nprocs 6
  end
* xyz 0 1
   C       -4.78934        -2.58445         0.98644
   C       -4.20457        -2.76956         2.21581
   C       -3.62950        -3.98207         2.64258
   N       -3.15199        -4.94595         3.04591
   C       -4.05589        -1.76220         3.18994
   N       -3.86428        -0.98681         4.01598
   C       -4.81675        -3.56133        -0.09595
   C       -5.34336        -2.93554        -1.25117
   C       -5.48603        -3.59439        -2.44686
   C       -5.08398        -4.93364        -2.50835
   C       -4.56452        -5.55084        -1.34732
   C       -4.42422        -4.88574        -0.13515
   S       -4.13946        -7.21104        -1.64143
   C       -4.65531        -7.05226        -3.29916
   C       -5.12315        -5.82262        -3.61786
  Br       -4.52787        -8.52568        -4.45412
   C       -5.71702        -1.54065        -0.92732
   O       -6.29962        -0.77363        -1.66822
   C       -5.36633        -1.35757         0.49246
   C       -5.69696        -0.26580         1.25346
   C       -6.04986         1.00990         0.78066
   S       -7.10990         1.97274         1.78153
   C       -7.16444         3.24885         0.60824
   C       -6.34216         2.95859        -0.47677
   C       -5.68653         1.72140        -0.36091
   C       -4.56572         1.35504        -1.28729
   N       -3.63401         0.42641        -0.67587
   C       -3.91467         2.66500        -1.76440
   C       -4.94362         3.48402        -2.52431
   C       -6.14955         3.88632        -1.64803
   N       -7.38983         3.93519        -2.42243
   C       -7.96467         4.38403         0.93671
   C       -8.47088         5.27856         0.06296
   C       -9.28896         6.41700         0.39966
   C       -9.40266         6.92303         1.70515
   C      -10.21481         8.00308         1.94409
   C      -10.94245         8.60115         0.89873
   C      -10.82957         8.11937        -0.39858
   C      -10.00020         7.04397        -0.63502
   C      -11.71850         9.69081         1.44064
   C      -11.46274         9.78400         2.82076
   C      -10.48289         8.71578         3.25047
   C      -11.11005         7.76766         4.28926
   C      -12.39269         7.11185         3.79225
   C       -9.19478         9.33220         3.82653
   C       -8.51314        10.28993         2.85680
   C      -12.07607        10.74812         3.57912
   C      -12.98845        11.63823         2.98137
   C      -13.23098        11.52644         1.60148
   C      -12.60399        10.57112         0.83255
   C      -13.63321        12.62734         3.79792
   C      -14.68861        13.39980         3.42776
   C      -15.29580        14.36987         4.24444
   C      -16.39780        15.09383         3.86206
   C      -17.07092        16.10420         4.58990
   C      -18.14873        16.63778         3.94767
   C      -18.39638        16.07515         2.67778
   S      -17.19924        14.85060         2.31558
   C      -19.41304        16.36652         1.78774
   C      -20.44586        17.32090         1.91217
   C      -21.30108        17.34655         0.85254
   C      -21.00329        16.41266        -0.17230
   S      -19.56722        15.50392         0.27423
   C      -21.72064        16.23487        -1.32693
   C      -21.48961        15.30902        -2.36701
   C      -20.49469        14.34118        -2.50327
   C      -20.70060        13.64742        -3.72425
   C      -20.01258        12.61216        -4.31113
   C      -20.48207        12.13076        -5.54704
   C      -20.02498        11.11853        -6.37238
   C      -20.87462        11.03465        -7.52522
   C      -21.85404        11.99947        -7.40589
   C      -21.65347        12.71332        -6.18067
   C      -22.34071        13.74265        -5.60116
   C      -21.87370        14.22658        -4.35713
   C      -22.33806        15.22539        -3.52947
   C      -20.74629        10.11019        -8.62528
   C      -19.81569         9.16628        -8.74015
   H       -5.89411        -3.09465        -3.31149
   H       -4.03080        -5.40141         0.72496
   H       -5.48279        -5.55213        -4.59386
   H       -5.75477        -0.39118         2.32838
   H       -4.99373         0.83723        -2.15914
   H       -3.25627         0.80664         0.18571
   H       -2.86429         0.23965        -1.30812
   H       -3.06715         2.43512        -2.41501
   H       -3.54281         3.22462        -0.90162
   H       -5.30666         2.87929        -3.36132
   H       -4.48347         4.38314        -2.93948
   H       -5.99102         4.89988        -1.25206
   H       -7.66023         2.99640        -2.69813
   H       -7.24881         4.48247        -3.26547
   H       -8.20722         4.45897         1.98933
   H       -8.31725         5.10310        -0.99263
   H       -8.84138         6.47151         2.50916
   H      -11.37837         8.57973        -1.20663
   H       -9.89988         6.65372        -1.63767
   H      -11.32225         8.33569         5.19759
   H      -10.38175         6.99411         4.54210
   H      -13.14184         7.86421         3.55559
   H      -12.79644         6.45237         4.55707
   H      -12.20177         6.52455         2.89670
   H       -8.50519         8.52545         4.08424
   H       -9.44386         9.86506         4.74672
   H       -8.23600         9.77472         1.93964
   H       -7.61234        10.70078         3.30712
   H       -9.17660        11.11295         2.60038
   H      -11.88059        10.82743         4.63951
   H      -13.91243        12.21482         1.12671
   H      -12.79999        10.50820        -0.22767
   H      -13.24710        12.73729         4.80438
   H      -15.12692        13.27461         2.44645
   H      -14.88030        14.56385         5.22449
   H      -16.73517        16.40570         5.56671
   H      -18.77255        17.41363         4.35485
   H      -20.52899        17.95926         2.77359
   H      -22.14662        18.00758         0.77266
   H      -22.57954        16.88388        -1.45117
   H      -19.69884        14.13311        -1.81517
   H      -19.14099        12.17532        -3.84483
   H      -19.17159        10.49321        -6.18450
   H      -22.64428        12.19241        -8.10841
   H      -23.21383        14.18075        -6.06475
   H      -23.19477        15.85301        -3.70199
   H      -21.48983        10.22456        -9.40472
   H      -19.05578         9.01393        -7.99300
   H      -19.78092         8.51057        -9.59292
*
