# ORCA input file
# SCF done       -155.685331732501          0.000843421870
! CAM-B3LYP def2-SVP def2/J RIJCOSX Grid4 TightSCF
%maxcore 5000
%tddft
    Mode sTDDFT
    Ethresh 5.0
    maxcore 5000
end

%pal
  nprocs 6
  end
* xyz 0 1
   C        0.24940         3.72336         1.27339
   N        1.03497         3.31924         2.20530
   C        1.77738         2.28855         1.76791
   C        1.55468         1.88419         0.44760
   S        0.33591         2.87489        -0.25803
   N        2.28929         0.85977         0.00292
   C        3.09452         0.42992         0.92247
   S        2.99117         1.30265         2.47668
   C        4.01295        -0.66273         0.74816
   C        4.86104        -1.05616         1.79135
   C        5.72521        -2.10559         1.59476
   C        5.78777        -2.74425         0.34191
   C        4.94553        -2.36067        -0.69394
   C        4.05548        -1.32903        -0.48317
   C        6.84984        -3.72358         0.37771
   C        7.44117        -3.69923         1.65350
   C        6.72095        -2.71677         2.55388
   C        6.01425        -3.53345         3.66139
   C        5.04488        -2.75043         4.53614
   C        7.67406        -1.66880         3.14731
   C        8.46877        -0.93237         2.07504
   C        8.51691        -4.49960         1.94462
   C        9.05078        -5.33474         0.94696
   C        8.43966        -5.35078        -0.31875
   C        7.34596        -4.56509        -0.60908
   C       10.22243        -6.13892         1.14930
   C       10.88659        -6.34795         2.31560
   C       12.08237        -7.08878         2.38724
   C       12.78504        -7.33852         3.53521
   C       14.03419        -8.00240         3.63928
   C       14.51992        -8.09305         4.90555
   C       13.67168        -7.52699         5.88732
   S       12.24196        -6.85036         5.13640
   C       13.87161        -7.49698         7.25046
   C       14.99984        -7.94432         7.97657
   C       14.89886        -7.79285         9.32365
   C       13.66797        -7.23037         9.75207
   S       12.65837        -6.86653         8.34983
   C       13.26485        -7.01157        11.03458
   N       12.02922        -6.53296        11.34660
   C       11.54042        -6.30919        12.58059
   S       12.53181        -6.50998        13.99122
   C       11.17454        -6.06556        14.98746
   N       11.37874        -6.04672        16.36374
   O       10.43978        -5.73878        17.07926
   O       12.49942        -6.34521        16.75417
   C       10.04075        -5.78751        14.27238
   C       10.21913        -5.91852        12.88341
   C        9.21339        -5.71803        11.88637
   C        7.90899        -5.45879        12.12488
   C        6.97228        -5.30246        11.06758
   N        7.25497        -5.35001         9.79788
   C        6.15279        -5.18849         9.06300
   C        4.95013        -5.00911         9.75991
   S        5.25031        -5.04511        11.45021
   N        3.84828        -4.85692         9.00785
   C        4.15060        -4.91173         7.76157
   S        5.84383        -5.15405         7.36950
   H       -0.43605         4.53712         1.39765
   H        4.83215        -0.51536         2.72538
   H        4.99119        -2.85626        -1.65179
   H        3.38603        -1.00319        -1.26311
   H        6.78553        -3.97854         4.29377
   H        5.47006        -4.35122         3.18174
   H        5.53393        -1.90764         5.01620
   H        4.66203        -3.40279         5.31664
   H        4.20167        -2.38667         3.95577
   H        8.36250        -2.16680         3.83314
   H        7.09560        -0.94345         3.72029
   H        9.08275        -1.62624         1.50516
   H        9.12078        -0.19241         2.53300
   H        7.79984        -0.42201         1.38566
   H        8.97263        -4.46828         2.92191
   H        8.84727        -5.99869        -1.08161
   H        6.89373        -4.59267        -1.58898
   H       10.61488        -6.61652         0.25899
   H       10.51692        -5.93499         3.24435
   H       12.49803        -7.47145         1.46364
   H       14.53505        -8.38323         2.76655
   H       15.45324        -8.55970         5.16465
   H       15.85810        -8.35966         7.47999
   H       15.65820        -8.07493        10.03038
   H       13.92066        -7.23471        11.86234
   H       11.40620        -6.35947        10.56389
   H        9.12489        -5.49709        14.75227
   H        9.50638        -5.79072        10.84790
   H        7.51389        -5.37854        13.12534
   H        3.42315        -4.82160         6.98001
*
