# ORCA input file
# SCF done       -180.763447886322          0.000949234788
! CAM-B3LYP def2-SVP def2/J RIJCOSX Grid4 TightSCF
%maxcore 5000
%tddft
    Mode sTDDFT
    Ethresh 5.0
    maxcore 5000
end

%pal
  nprocs 6
  end
* xyz 0 1
   C        6.93069         0.81128        -2.14100
   S        5.82867         1.49659        -1.02313
   C        6.07961         3.08918        -1.68934
   C        6.98570         3.04878        -2.72407
   C        7.47898         1.73869        -2.97259
   C        8.53650         1.40550        -3.98764
   C        9.82741         0.98869        -3.27191
   C        8.78041         2.59170        -4.92494
   C        8.82212         3.90602        -4.15415
   C        7.44920         4.22053        -3.53876
   C        6.46907         4.53752        -4.64203
   C        6.39640         5.71493        -5.23589
   C        5.40181         4.20752        -1.06416
   C        5.06581         5.36620        -1.77510
   C        4.50660         6.42968        -1.10616
   C        4.27468         6.36207         0.27498
   C        4.51948         5.18963         0.97067
   C        5.08078         4.12511         0.29675
   C        3.77472         7.64190         0.72012
   C        3.68279         8.50429        -0.38705
   C        4.08633         7.77908        -1.65437
   C        2.87844         7.63160        -2.60077
   C        1.68891         6.93651        -1.94931
   C        5.28646         8.39277        -2.40402
   C        5.18048         9.86502        -2.77846
   C        3.21611         9.78519        -0.21188
   C        2.87426        10.24238         1.07175
   C        2.97943         9.36713         2.15918
   C        3.41915         8.07150         1.98954
   C        2.46435        11.61794         1.22565
   C        1.99390        12.19294         2.34472
   N        1.73037        13.53690         2.40663
   C        1.27202        14.22912         3.46897
   S        0.52136        13.43097         4.81423
   C        0.13796        14.98304         5.50408
   N       -0.51939        14.99556         6.72707
   O       -0.79812        16.07915         7.21772
   O       -0.77561        13.90819         7.22870
   C        0.56720        16.03610         4.73780
   C        1.25021        15.63292         3.57749
   C        1.87502        16.54779         2.66467
   C        2.92607        16.24708         1.85834
   C        3.52650        17.11795         0.92903
   C        4.53232        16.71407         0.08903
   C        5.21348        17.48406        -0.88392
   C        6.14793        16.79368        -1.59434
   C        6.26543        15.43345        -1.23151
   S        5.14163        15.05903         0.05904
   C        7.11140        14.48684        -1.77376
   C        8.02638        14.67572        -2.83496
   C        8.72258        13.55679        -3.16701
   C        8.41170        12.41166        -2.38842
   S        7.17761        12.83006        -1.20654
   C        8.98240        11.17980        -2.56090
   C        8.77935         9.97857        -1.84691
   C        8.03307         9.71067        -0.69900
   C        8.15318         8.32632        -0.39444
   C        7.61847         7.55218         0.61125
   C        7.92842         6.18057         0.61853
   C        7.57540         5.16218         1.48942
   C        8.15420         3.93176         1.03349
   C        8.86907         4.19654        -0.11547
   C        8.76823         5.59379        -0.41069
   C        9.31491         6.35867        -1.40213
   C        9.01161         7.73820        -1.40899
   C        9.38879         8.74553        -2.26926
   C        8.01445         2.63079         1.64059
   C        7.32337         2.36282         2.74546
   H        7.11228        -0.24558        -2.11884
   H        8.19646         0.54746        -4.58038
   H       10.21323         1.80100        -2.66105
   H       10.58929         0.71148        -3.99731
   H        9.64274         0.13651        -2.62321
   H        7.98328         2.64300        -5.66923
   H        9.72172         2.44150        -5.45787
   H        9.10648         4.72130        -4.82241
   H        9.56715         3.84277        -3.35937
   H        7.54940         5.10101        -2.89266
   H        5.82273         3.72681        -4.95246
   H        7.02772         6.53751        -4.93770
   H        5.70548         5.91004        -6.03870
   H        5.21996         5.40794        -2.84037
   H        4.28729         5.11074         2.02230
   H        5.29200         3.20842         0.82730
   H        3.19465         7.05938        -3.47593
   H        2.57117         8.62297        -2.93760
   H        1.96314         5.93861        -1.61492
   H        0.87233         6.84799        -2.66233
   H        1.33542         7.50104        -1.08957
   H        5.43200         7.80529        -3.31371
   H        6.17315         8.25950        -1.78367
   H        4.27612        10.07039        -3.34576
   H        6.03494        10.13886        -3.39463
   H        5.19861        10.49272        -1.89230
   H        3.09628        10.45574        -1.04890
   H        2.72134         9.70959         3.14881
   H        3.48886         7.40262         2.83450
   H        2.58274        12.24088         0.34676
   H        1.81542        11.65559         3.26286
   H        1.92813        14.07712         1.57132
   H        0.41733        17.05943         5.03109
   H        1.49009        17.55863         2.67301
   H        3.40013        15.27658         1.93356
   H        3.17238        18.13610         0.85066
   H        4.99071        18.52707        -1.02434
   H        6.75670        17.22755        -2.36731
   H        8.14054        15.62623        -3.32405
   H        9.45936        13.51141        -3.95009
   H        9.69337        11.11601        -3.37731
   H        7.46224        10.41785        -0.12780
   H        6.97368         7.97516         1.36851
   H        6.98823         5.27926         2.38069
   H        9.41719         3.47814        -0.69709
   H        9.96726         5.94451        -2.15817
   H       10.02440         8.64518        -3.13153
   H        8.52171         1.82843         1.11880
   H        6.80201         3.12759         3.29563
   H        7.25545         1.36354         3.13895
*
