# ORCA input file
# SCF done       -218.257001941821          0.000883225643
! CAM-B3LYP def2-SVP def2/J RIJCOSX Grid4 TightSCF
%maxcore 5000
%tddft
    Mode sTDDFT
    Ethresh 5.0
    maxcore 5000
end

%pal
  nprocs 6
  end
* xyz 0 1
   C       -5.49979        -4.26506        -9.06999
   C       -4.82303        -3.77006       -10.17241
   C       -5.53677        -3.02288       -11.11201
   C       -4.86381        -2.51481       -12.25045
   N       -4.31358        -2.10984       -13.16923
   C       -6.91188        -2.76727       -10.95188
   C       -7.60737        -2.00250       -11.91831
   N       -8.18903        -1.38543       -12.68816
   C       -7.58999        -3.27094        -9.84073
   C       -6.87467        -4.01178        -8.92508
   C       -7.37406        -4.65912        -7.68868
   O       -8.51791        -4.59136        -7.28747
   C       -6.21298        -5.35596        -7.10776
   C       -5.05196        -5.06627        -7.92876
   C       -3.74737        -5.42607        -7.70337
   C       -2.67690        -5.09973        -8.56378
   N       -1.76153        -4.87309        -9.21827
   C       -3.25111        -6.14336        -6.59349
   N       -2.74663        -6.70990        -5.73094
   C       -6.17568        -6.19825        -6.01919
   C       -7.17246        -6.63331        -5.13735
   S       -6.68713        -7.81979        -3.93314
   C       -8.29196        -7.91525        -3.30208
   C       -9.14590        -7.05167        -3.98710
   C       -8.52784        -6.34321        -4.99779
   C       -8.63105        -8.79742        -2.24961
   C       -9.88544        -9.04137        -1.71509
   C       -9.88302       -10.00659        -0.71701
   C       -8.62668       -10.52411        -0.45254
   S       -7.42628        -9.78852        -1.47059
   C       -8.28090       -11.52639         0.48489
   S       -9.50380       -12.37308         1.38978
   C       -8.30489       -13.34454         2.19794
   C       -7.03316       -12.99943         1.77084
   C       -7.02081       -11.99152         0.81434
   C       -8.72716       -14.32793         3.12521
   C       -7.90196       -15.11159         3.86594
   C       -8.38718       -16.09883         4.75298
   S       -7.30593       -17.04004         5.75037
   C       -8.59169       -17.96402         6.47712
   C       -8.32104       -18.98380         7.52507
   C       -8.12862       -18.32962         8.89576
   C       -9.78415       -17.54837         5.97161
   C       -9.69559       -16.50104         4.99201
   N      -10.87140       -16.11003         4.46736
   C      -11.87082       -16.76490         4.95892
   S      -11.44558       -17.99484         6.19675
   C      -13.23071       -16.60104         4.59111
   C      -13.61618       -15.74068         3.61822
   C      -14.95156       -15.54502         3.18272
   S      -15.27116       -14.45178         1.86396
   C      -16.97568       -14.77966         1.94074
   C      -17.25632       -15.68524         2.94700
   C      -16.12830       -16.11282         3.63805
   C      -17.88763       -14.16656         1.04444
   C      -17.61362       -13.28828         0.01406
   C      -18.74658       -12.88550        -0.68610
   C      -19.91596       -13.44369        -0.20757
   S      -19.59310       -14.49332         1.14588
   C      -21.23695       -13.25956        -0.68214
   S      -21.57898       -12.25090        -2.04973
   C      -23.28816       -12.59048        -1.93473
   C      -23.54095       -13.44583        -0.87121
   C      -22.40152       -13.81852        -0.17702
   C      -24.17160       -12.04589        -2.88732
   C      -25.52932       -12.18854        -2.86973
   C      -26.41973       -11.64021        -3.81204
   C      -26.21705       -11.17988        -5.08833
   C      -27.24115       -10.27688        -5.66999
   O      -28.33545       -10.02620        -5.22029
   C      -26.62034        -9.71287        -6.89210
   C      -27.10875        -8.73973        -7.73674
   C      -26.31336        -8.34424        -8.81422
   C      -25.04819        -8.92931        -9.01061
   C      -24.56899        -9.92343        -8.15423
   C      -25.36607       -10.31940        -7.09476
   C      -25.16157       -11.33760        -6.05856
   C      -24.27520       -12.37971        -6.17092
   C      -24.24452       -13.48672        -5.30104
   N      -24.18907       -14.41838        -4.63313
   C      -23.33516       -12.50882        -7.21366
   N      -22.54022       -12.65601        -8.02833
   C      -24.24293        -8.49930       -10.09413
   N      -23.58229        -8.15448       -10.96324
   C      -26.77743        -7.34806        -9.70638
   N      -27.16985        -6.53869       -10.41519
   H       -3.77136        -3.94331       -10.33357
   H       -8.64487        -3.08875        -9.70185
   H       -5.20874        -6.63878        -5.80730
   H      -10.18783        -6.95346        -3.74313
   H       -9.02882        -5.63423        -5.63082
   H      -10.77187        -8.53564        -2.05150
   H      -10.76042       -10.33453        -0.18846
   H       -6.14387       -13.47638         2.14008
   H       -6.12798       -11.59615         0.36213
   H       -9.79352       -14.46020         3.24243
   H       -6.82858       -15.00297         3.80479
   H       -7.42225       -19.54674         7.26462
   H       -9.16692       -19.67437         7.56381
   H       -7.28601       -17.64233         8.87066
   H       -7.93679       -19.08973         9.64818
   H       -9.02080       -17.77610         9.17947
   H      -13.94691       -17.21384         5.11745
   H      -12.85059       -15.16254         3.11965
   H      -18.25779       -16.01786         3.15667
   H      -16.16280       -16.81635         4.44948
   H      -16.61404       -12.96221        -0.21211
   H      -18.73305       -12.20841        -1.52177
   H      -24.52680       -13.79345        -0.62366
   H      -22.39616       -14.47960         0.67163
   H      -23.71646       -11.43487        -3.65644
   H      -25.98372       -12.69500        -2.03034
   H      -27.43804       -11.49074        -3.46276
   H      -28.07811        -8.29553        -7.56913
   H      -23.59314       -10.34649        -8.33317
*
