# ORCA input file
# SCF done       -193.868311629071          0.000901034254
! CAM-B3LYP def2-SVP def2/J RIJCOSX Grid4 TightSCF
%maxcore 5000
%tddft
    Mode sTDDFT
    Ethresh 5.0
    maxcore 5000
end

%pal
  nprocs 6
  end
* xyz 0 1
   C       -3.94843        -1.96882         1.46875
   C       -3.50556        -0.84877         2.15053
   C       -4.03312         0.39679         1.79898
   C       -3.60691         1.55456         2.49472
   N       -3.26300         2.48751         3.06262
   C       -4.98529         0.52274         0.77086
   C       -5.50162         1.79371         0.42599
   N       -5.94250         2.80682         0.12397
   C       -5.43031        -0.61155         0.08879
   C       -4.91170        -1.83404         0.45450
   C       -5.25176        -3.16835        -0.08996
   O       -6.01327        -3.34493        -1.02878
   C       -4.49043        -4.13369         0.70935
   C       -3.61080        -3.38830         1.58993
   C       -2.58390        -3.87015         2.36358
   C       -1.76841        -3.05945         3.18116
   N       -1.07249        -2.45728         3.86744
   C       -2.14313        -5.20891         2.43478
   N       -1.69592        -6.26180         2.54215
   C       -4.57910        -5.51488         0.76941
   C       -5.36092        -6.45870         0.09305
   C       -6.25704        -6.22375        -0.93920
   C       -7.04326        -7.18425        -1.53727
   C       -7.00904        -8.59333        -1.12857
   C       -6.19119        -9.07566        -0.16600
   S       -5.09651        -8.10480         0.72180
   C       -7.97410        -9.23730        -1.94347
   C       -8.58201        -8.30767        -2.80334
   C       -9.53312        -8.93148        -3.64807
   C       -9.62483       -10.26343        -3.40885
   S       -8.56734       -10.83128        -2.15789
   C       -8.01100        -7.01786        -2.56503
   C       -8.29392        -5.78208        -3.19186
   C       -9.33853        -5.53567        -4.01732
   N       -9.50918        -4.34854        -4.65638
   C      -10.68281        -3.94393        -5.27459
   C      -11.93784        -4.39384        -4.98166
   S      -13.13867        -3.64206        -5.94803
   C      -11.95496        -2.71105        -6.77492
   C      -10.69022        -2.97032        -6.33164
   N       -9.51205        -2.43867        -6.82334
   C       -9.41433        -1.46784        -7.77032
   C       -8.27916        -1.21852        -8.45737
   C       -8.12263        -0.20992        -9.45603
   C       -7.00789        -0.17400       -10.26460
   C       -6.81095         0.71842       -11.31445
   C       -7.77666         1.77670       -11.60611
   C       -8.92328         1.96134       -10.91409
   S       -9.41947         0.95754        -9.61579
   C       -7.24432         2.48047       -12.72151
   C       -6.03037         1.91308       -13.11086
   C       -5.54495         2.49611       -14.30216
   C       -6.36167         3.48757       -14.74715
   S       -7.75218         3.74903       -13.76055
   C       -5.72230         0.81803       -12.21509
   C       -4.62384        -0.05824       -12.22359
   C       -3.37431         0.14545       -12.76301
   C       -2.86772         1.39905       -13.11062
   C       -1.63555         1.62498       -13.69241
   C       -0.69467         0.56966       -14.09669
   O       -0.81955        -0.63621       -14.01443
   C        0.48554         1.28194       -14.64892
   C        1.64618         0.74372       -15.15847
   C        2.62591         1.61925       -15.63204
   C        2.41213         3.00915       -15.57920
   C        1.22958         3.54200       -15.05944
   C        0.26129         2.66992       -14.59283
   C       -1.06053         2.90755       -14.00377
   C       -1.62364         4.14892       -13.81709
   C       -2.89725         4.40115       -13.27092
   N       -3.92441         4.69557       -12.84690
   C       -0.99779         5.36245       -14.16622
   N       -0.54328         6.38376       -14.42963
   C        3.41446         3.88467       -16.06338
   N        4.22034         4.59712       -16.45621
   C        3.83212         1.10685       -16.16449
   N        4.79877         0.66759       -16.59444
   H       -2.77884        -0.90285         2.94482
   H       -6.16481        -0.53309        -0.69835
   H       -3.94633        -5.96714         1.52471
   H       -6.33982        -5.19897        -1.27046
   H       -6.17565       -10.11742         0.11411
   H      -10.11569        -8.44029        -4.40553
   H      -10.26009       -10.97476        -3.89945
   H       -7.62041        -4.96574        -2.96610
   H      -10.08885        -6.27885        -4.23229
   H       -8.80505        -3.63997        -4.49370
   H      -12.22534        -5.10479        -4.23446
   H      -12.26576        -2.04740        -7.55465
   H       -8.67145        -2.96749        -6.63018
   H      -10.30980        -0.88925        -7.93689
   H       -7.41235        -1.84368        -8.28582
   H       -6.25069        -0.92346       -10.07778
   H       -9.61878         2.75415       -11.13804
   H       -4.65650         2.19241       -14.82497
   H       -6.22764         4.10299       -15.61496
   H       -4.79178        -1.01847       -11.74928
   H       -2.71175        -0.70390       -12.84760
   H       -3.46445         2.25862       -12.84186
   H        1.79307        -0.32525       -15.19086
   H        1.10458         4.61264       -15.03568
*
