# ORCA input file
# SCF done       -187.951272665578          0.000566757213
! CAM-B3LYP def2-SVP def2/J RIJCOSX Grid4 TightSCF
%maxcore 5000
%tddft
    Mode sTDDFT
    Ethresh 5.0
    maxcore 5000
end

%pal
  nprocs 6
  end
* xyz 0 1
   C       -0.42730        -1.75829         1.61177
   C        0.29588        -0.89701         2.41899
   C        0.61314         0.36937         1.92271
   C        1.34170         1.27288         2.73615
   N        1.92835         1.99811         3.39951
   C        0.21618         0.76870         0.63198
   C        0.55052         2.06054         0.15794
   N        0.80808         3.10180        -0.24240
   C       -0.51524        -0.10167        -0.17770
   C       -0.82624        -1.34776         0.32407
   C       -1.61916        -2.41862        -0.31125
   O       -2.16932        -2.37058        -1.39619
   C       -1.69449        -3.50349         0.67920
   C       -0.90798        -3.12050         1.83858
   C       -0.58473        -3.92063         2.89882
   C        0.21785        -3.50712         3.98532
   N        0.86054        -3.21715         4.88966
   C       -0.96570        -5.27646         3.01770
   N       -1.21615        -6.38778         3.15186
   C       -2.53677        -4.58047         0.59823
   C       -3.22919        -5.06406        -0.52690
   S       -4.70777        -5.96668        -0.23592
   C       -4.94768        -6.26916        -1.93489
   C       -3.88795        -5.73890        -2.67333
   C       -2.94282        -5.04476        -1.88542
   S       -1.54824        -4.41313        -2.68745
   C       -1.97448        -5.02701        -4.26193
   S       -1.02472        -4.83193        -5.57665
   S       -3.52891        -5.83733        -4.36706
   C       -6.12642        -6.93647        -2.36044
   C       -7.07962        -7.35283        -1.39845
   C       -8.33355        -7.95392        -1.75532
   N       -9.19671        -8.28737        -0.79379
   C       -8.90103        -8.08306         0.46864
   C       -7.64450        -7.50312         0.82508
   N       -6.79003        -7.15904        -0.11018
   C       -7.30742        -7.28089         2.18412
   N       -7.06305        -7.09892         3.28746
   C       -9.84183        -8.44028         1.46732
   N      -10.58259        -8.71702         2.29474
   C       -8.71280        -8.19587        -3.09877
   C       -7.73939        -7.83861        -4.05706
   C       -6.48032        -7.21915        -3.69779
   N       -5.74304        -6.97113        -4.77646
   S       -6.51165        -7.45665        -6.09852
   N       -7.83375        -8.00405        -5.37332
   C       -9.99481        -8.73613        -3.37923
   S      -11.05964        -9.13516        -2.05892
   C      -12.31872        -9.69011        -3.14142
   C      -11.91514        -9.53437        -4.45933
   C      -10.61815        -8.99894        -4.60023
   S      -10.07909        -8.74387        -6.22991
   C      -11.57125        -9.24868        -7.00424
   S      -11.76072        -9.22671        -8.61962
   S      -12.82865        -9.79641        -5.91187
   C      -13.54136       -10.11893        -2.59019
   C      -14.53632       -10.88814        -3.11999
   C      -15.89513       -10.81520        -2.50560
   O      -16.19047       -10.29479        -1.45927
   C      -16.79330       -11.46748        -3.48567
   C      -18.16843       -11.56006        -3.46242
   C      -18.80200       -12.20237        -4.52825
   C      -18.04210       -12.73076        -5.58935
   C      -16.64838       -12.64012        -5.59792
   C      -16.02538       -12.00835        -4.53617
   C      -14.60803       -11.77589        -4.25302
   C      -13.56455       -12.46044        -4.82262
   C      -13.70920       -13.38390        -5.88044
   N      -13.77255       -14.13249        -6.74674
   C      -12.23948       -12.39177        -4.34701
   N      -11.15342       -12.36291        -3.97756
   C      -18.70507       -13.36437        -6.67035
   N      -19.23399       -13.87644        -7.54670
   C      -20.21354       -12.31624        -4.54563
   N      -21.35571       -12.39492        -4.54468
   H        0.61159        -1.16645         3.41439
   H       -0.83076         0.19252        -1.16716
   H       -2.76621        -5.11309         1.51383
   H      -13.75563        -9.72759        -1.59917
   H      -18.73890       -11.14608        -2.64489
   H      -16.09702       -13.04972        -6.42960
*
