# ORCA input file
# SCF done       -224.699720111213          0.000911199438
! CAM-B3LYP def2-SVP def2/J RIJCOSX Grid4 TightSCF
%maxcore 5000
%tddft
    Mode sTDDFT
    Ethresh 5.0
    maxcore 5000
end

%pal
  nprocs 6
  end
* xyz 0 1
   C       -0.07490        -1.90949        -6.39414
   C        0.43430        -2.00038        -5.10582
   N       -0.19879        -2.40312        -3.94416
   C       -1.62907        -2.24043        -3.79281
   C       -1.99426        -0.76273        -3.65640
   C        0.72965        -2.36413        -2.92172
   C        1.96380        -1.87920        -3.42337
   C        1.78383        -1.68756        -4.83430
   C        2.62842        -1.28028        -5.85859
   C        2.11887        -1.19918        -7.13865
   C        0.78605        -1.51208        -7.39910
   C        3.04239        -1.65431        -2.58036
   C        2.88640        -1.90426        -1.23052
   C        1.71148        -2.46385        -0.75042
   C        0.63202        -2.77201        -1.58057
   C       -0.39735        -3.65149        -1.05321
   C       -0.97039        -4.59402        -1.81554
   C       -1.89671        -5.63108        -1.39866
   C       -2.75812        -6.24737        -2.32728
   C       -2.83331        -5.89780        -3.76847
   O       -3.88955        -5.58400        -4.28828
   C       -1.61312        -5.97824        -4.58720
   C       -0.40177        -6.52504        -4.25687
   S        0.75671        -6.33543        -5.49808
   C       -0.39314        -5.52520        -6.49969
   C       -1.60702        -5.42603        -5.90722
   C       -2.83074        -4.80751        -6.50680
   O       -2.99201        -3.60613        -6.50544
   C       -3.78076        -5.75206        -7.12948
   C       -3.49580        -7.10887        -7.27165
   C       -4.42134        -7.95049        -7.85831
   C       -5.63519        -7.45107        -8.30412
   C       -5.92495        -6.10276        -8.16528
   C       -5.00274        -5.25666        -7.58266
   C       -3.68580        -7.18486        -1.87635
   C       -3.72891        -7.57722        -0.55846
   C       -2.85308        -7.01200         0.37725
   C       -1.96456        -6.03366        -0.06721
   C       -2.86856        -7.44935         1.75409
   N       -2.23223        -6.74932         2.75798
   C       -2.38989        -7.42572         3.92590
   C       -2.07154        -7.41811         5.28420
   C       -2.62709        -8.58200         5.81583
   N       -3.27392        -9.27822         4.81401
   C       -3.13654        -8.59108         3.65007
   C       -3.43998        -8.60130         2.28626
   C       -2.59798        -9.08343         7.15070
   C       -1.98735        -8.46085         8.17557
   C       -1.92038        -8.95810         9.53642
   C       -1.90981        -8.12442        10.67510
   C       -2.11579        -6.66157        10.67544
   O       -1.95171        -5.98899        11.67466
   C       -2.63775        -6.02717         9.43073
   C       -3.85975        -6.33612         8.91972
   S       -4.26488        -5.38576         7.54356
   C       -2.78820        -4.54103         7.65986
   C       -2.00894        -4.96459         8.70439
   C       -0.70606        -4.33259         8.99915
   O       -0.40021        -3.25986         8.52080
   C        0.18306        -5.07525         9.93360
   C        0.60388        -4.45174        11.10261
   C        1.37540        -5.14472        12.01636
   C        1.75404        -6.45214        11.75962
   C        1.37558        -7.06096        10.57565
   C        0.58917        -6.37783         9.66632
   C       -1.74066        -8.70126        11.93773
   C       -1.59903       -10.05856        12.10492
   C       -1.61743       -10.89748        10.98972
   C       -1.78781       -10.33419         9.73264
   C       -1.50448       -12.35616        11.13048
   C       -0.62529       -13.15176        10.38729
   N        0.38135       -12.79742         9.50409
   C        1.12728       -11.56008         9.59023
   C        1.73611       -11.36770        10.97897
   C        0.91187       -13.96354         8.97609
   C        0.27377       -15.08109         9.55984
   C       -0.71008       -14.56203        10.46517
   C       -1.61364       -15.18298        11.31529
   C       -2.43216       -14.39192        12.09579
   C       -2.37729       -13.00783        11.99661
   C        0.64657       -16.37622         9.22776
   C        1.65819       -16.54858         8.30566
   C        2.25336       -15.45122         7.69573
   C        1.88894       -14.14040         7.98883
   C        2.46489       -13.04478         7.20161
   C        3.74748       -12.94889         6.88117
   H       -1.10332        -2.14937        -6.61301
   H       -1.97035        -2.77838        -2.90860
   H       -2.12275        -2.66263        -4.67033
   H       -1.51411        -0.33323        -2.77875
   H       -3.07080        -0.65810        -3.55490
   H       -1.67074        -0.20959        -4.53524
   H        3.66094        -1.03856        -5.65479
   H        2.75811        -0.88980        -7.95255
   H        0.41602        -1.43908        -8.41160
   H        3.97518        -1.28035        -2.97390
   H        3.69590        -1.70277        -0.54491
   H        1.64452        -2.72677         0.29598
   H       -0.58625        -3.58738         0.01017
   H       -0.70997        -4.59615        -2.86112
   H       -0.13322        -7.01826        -3.34312
   H       -0.09936        -5.18166        -7.47113
   H       -2.55189        -7.50577        -6.92708
   H       -4.19812        -9.00185        -7.96767
   H       -6.35578        -8.11523        -8.75855
   H       -6.87187        -5.71515        -8.51077
   H       -5.20828        -4.20432        -7.45815
   H       -4.37069        -7.61429        -2.59309
   H       -4.44942        -8.31367        -0.24202
   H       -1.26792        -5.58823         0.62639
   H       -1.78843        -5.85555         2.64411
   H       -1.51537        -6.67696         5.82235
   H       -3.75051       -10.15370         4.94424
   H       -3.97783        -9.35165         1.74342
   H       -3.13998       -10.00524         7.32261
   H       -1.49199        -7.52612         7.97123
   H       -4.55259        -7.07014         9.28058
   H       -2.54279        -3.76578         6.96083
   H        0.29654        -3.43572        11.29742
   H        1.67923        -4.66431        12.93425
   H        2.34883        -6.99500        12.47944
   H        1.68104        -8.07490        10.36094
   H        0.31725        -6.85041         8.73421
   H       -1.73010        -8.03698        12.78925
   H       -1.46052       -10.47800        13.09045
   H       -1.80427       -10.98706         8.87134
   H        0.48176       -10.71203         9.34629
   H        1.93245       -11.60717         8.85779
   H        2.36452       -10.48086        10.98571
   H        2.34813       -12.22872        11.24251
   H        0.96148       -11.24738        11.73184
   H       -1.66853       -16.25973        11.36216
   H       -3.13762       -14.84594        12.77525
   H       -3.06005       -12.40814        12.58114
   H        0.15161       -17.22177         9.68022
   H        1.97678       -17.54295         8.03082
   H        3.00215       -15.61363         6.93459
   H        1.75728       -12.31275         6.82785
   H        4.47529       -13.65532         7.24415
   H        4.12044       -12.15231         6.26013
*
