# ORCA input file
# SCF done       -212.718985062038          0.000951846723
! CAM-B3LYP def2-SVP def2/J RIJCOSX Grid4 TightSCF
%maxcore 5000
%tddft
    Mode sTDDFT
    Ethresh 5.0
    maxcore 5000
end

%pal
  nprocs 6
  end
* xyz 0 1
   C        5.00036        -7.42041        -3.04361
   C        4.73122        -8.75750        -2.93777
   C        5.06985        -9.70657        -3.92495
   N        5.30884       -10.51037        -4.70811
   C        4.17524        -9.35477        -1.78657
   N        3.79553        -9.90857        -0.85632
   C        5.83114        -6.80150        -4.07298
   C        6.27802        -5.55116        -3.60651
   C        7.12042        -4.75769        -4.35874
   C        7.51852        -5.21681        -5.60808
   C        7.06833        -6.45450        -6.08337
   C        6.22670        -7.25568        -5.32016
  Cl        7.55900        -7.00167        -7.63493
  Cl        8.56709        -4.25874        -6.57276
   C        5.69799        -5.28344        -2.27166
   O        5.90120        -4.33678        -1.54930
   C        4.75592        -6.41033        -2.02911
   C        3.82508        -6.31832        -1.04870
   C        2.62587        -7.09512        -0.87893
   C        2.14752        -7.34620         0.41616
   C        1.01081        -8.09717         0.57813
   C        0.29264        -8.55868        -0.53981
   C        0.73240        -8.27500        -1.82574
   C        1.90113        -7.56154        -1.98543
   C       -0.86462        -9.29141        -0.07368
   C       -0.84974        -9.29600         1.33171
   C        0.34795        -8.54418         1.85847
   C        1.27580        -9.47338         2.66559
   C        1.73167       -10.69294         1.87380
   C       -0.07557        -7.34773         2.73037
   C       -1.00099        -6.38164         2.00019
   C       -1.83774        -9.93803         2.03671
   C       -2.85729       -10.59628         1.33963
   C       -2.88642       -10.55194        -0.05757
   C       -1.89265        -9.91021        -0.76921
   C       -3.90794       -11.27129         2.07570
   S       -4.60407       -10.49343         3.45141
   C       -5.74695       -11.75965         3.71645
   C       -5.60447       -12.75636         2.75368
   C       -4.52988       -12.48828         1.83642
   C       -4.19100       -13.48956         0.87711
   C       -3.02006       -13.41787         0.09230
   N       -2.05665       -13.45003        -0.53048
   C       -4.97929       -14.61149         0.76222
   C       -6.11404       -14.78858         1.57362
   C       -6.41659       -13.89741         2.56205
   C       -6.65325       -11.68619         4.83970
   C       -7.01012       -12.84222         5.54842
   C       -7.86899       -12.73679         6.61527
   C       -8.37905       -11.48681         7.00670
   C       -8.01023       -10.33435         6.32644
   C       -7.15062       -10.44385         5.25359
   C       -9.24180       -11.67938         8.15021
   C       -9.26472       -13.05149         8.46698
   C       -8.38783       -13.83234         7.51622
   C       -9.20301       -14.87011         6.72187
   C      -10.35960       -14.24820         5.94822
   C       -7.24019       -14.53816         8.26305
   C       -6.37908       -13.57615         9.07249
   C      -10.00350       -13.50624         9.52721
   C      -10.77559       -12.59770        10.27775
   C      -10.72025       -11.23059         9.96712
   C       -9.95780       -10.76857         8.91516
   C      -11.53157       -13.11532        11.38184
   C      -12.68949       -12.64715        11.92432
   C      -13.32149       -13.18324        13.12137
   C      -12.74576       -14.00787        14.05035
   C      -13.40536       -14.47743        15.20691
   N      -13.88546       -14.89649        16.16128
   C      -11.41823       -14.48710        14.01070
   N      -10.35190       -14.90984        14.06417
   C      -14.66330       -12.61713        13.20867
   C      -14.84846       -11.72511        12.13957
   C      -13.63110       -11.68040        11.29969
   O      -13.49412       -11.03563        10.28510
   C      -16.02846       -11.03126        11.96433
   C      -17.05128       -11.22904        12.88277
   C      -16.87750       -12.11826        13.95018
   C      -15.68782       -12.81681        14.12078
  Cl      -18.15289       -12.35917        15.07444
  Cl      -18.53248       -10.37933        12.70616
   H        7.46095        -3.80581        -3.98298
   H        5.89524        -8.20205        -5.71584
   H        3.98296        -5.51344        -0.33695
   H        2.70608        -6.98291         1.26603
   H        0.17505        -8.61172        -2.68647
   H        2.24799        -7.31698        -2.97953
   H        0.74260        -9.79742         3.56246
   H        2.14903        -8.90081         2.98489
   H        0.87843       -11.28390         1.54776
   H        2.36528       -11.32064         2.49592
   H        2.30040       -10.39666         0.99678
   H        0.82129        -6.81639         3.05491
   H       -0.57935        -7.72671         3.62191
   H       -0.51446        -5.97662         1.11555
   H       -1.26991        -5.55505         2.65379
   H       -1.91365        -6.88505         1.68869
   H       -1.83294        -9.96049         3.11729
   H       -3.71152       -11.00839        -0.58361
   H       -1.92352        -9.89040        -1.84741
   H       -4.71990       -15.36708         0.03542
   H       -6.73501       -15.65731         1.41657
   H       -7.28354       -14.04266         3.18722
   H       -6.57855       -13.79354         5.27747
   H       -8.38911        -9.36968         6.62754
   H       -6.85756        -9.55963         4.70593
   H       -9.59190       -15.61614         7.41779
   H       -8.53317       -15.38138         6.02690
   H      -11.05478       -13.75541         6.62424
   H      -10.89974       -15.01731         5.40101
   H       -9.99567       -13.51034         5.23628
   H       -6.61549       -15.05694         7.53285
   H       -7.66779       -15.28956         8.92969
   H       -5.92392       -12.82873         8.42618
   H       -5.58646       -14.12195         9.57848
   H       -6.97577       -13.06329         9.82349
   H      -10.02426       -14.55596         9.78305
   H      -11.25554       -10.52705        10.58183
   H       -9.91861        -9.71303         8.69412
   H      -11.12365       -14.02508        11.80810
   H      -16.14780       -10.35154        11.13541
   H      -15.59307       -13.49658        14.95148
*
