# ORCA input file
# SCF done       -237.611812743006          0.000194219002
! CAM-B3LYP def2-SVP def2/J RIJCOSX Grid4 TightSCF
%maxcore 5000
%tddft
    Mode sTDDFT
    Ethresh 5.0
    maxcore 5000
end

%pal
  nprocs 6
  end
* xyz 0 1
   C        7.92059        -6.67409         8.76651
   C        7.06616        -6.61367         9.83745
   C        5.81272        -5.97221         9.80777
   N        4.77609        -5.47942         9.82766
   C        7.40786        -7.09400        11.11886
   N        7.67964        -7.41448        12.18712
   C        7.78372        -5.89889         7.53494
   C        9.04912        -5.78943         6.92997
   C        9.23430        -5.06646         5.76973
   C        8.12971        -4.44988         5.19388
   C        6.86689        -4.56636         5.78338
   C        6.68476        -5.28585         6.95975
  Cl        5.50955        -3.81147         5.04997
  Cl        8.32078        -3.54203         3.74762
   C       10.04194        -6.55836         7.71751
   O       11.23194        -6.65112         7.52095
   C        9.24771        -7.24436         8.76530
   C        9.79025        -8.29711         9.44727
   C        9.14656        -9.35331        10.11862
   S        7.46782        -9.77353         9.87806
   C        7.60415       -11.14281        10.93140
   C        8.89426       -11.25802        11.43076
   C        9.75154       -10.27641        10.96223
   C        6.49122       -11.98062        11.18033
   C        6.42602       -13.10958        11.97831
   C        5.16933       -13.70331        11.99682
   C        4.23714       -13.04607        11.21191
   S        4.94596       -11.65833        10.44521
   C        2.88003       -13.39129        10.98653
   S        1.87224       -12.43223         9.94413
   C        0.51751       -13.49892        10.17868
   C        0.85761       -14.52897        11.03620
   C        2.17261       -14.46907        11.48769
   C       -0.69670       -13.22670         9.48861
   C       -1.78065       -14.03303         9.47286
   C       -2.98879       -13.80940         8.72345
   C       -3.88578       -14.84538         8.58081
   C       -5.03232       -14.69541         7.77531
   C       -6.02920       -15.59258         7.42410
   C       -6.15159       -17.00721         7.88573
   C       -7.48667       -17.25724         8.61085
   N       -7.33871       -18.37836         9.51933
   C       -5.93683       -17.98406         6.71583
   N       -5.82150       -19.35336         7.19743
   C       -6.91341       -14.89819         6.51648
   C       -8.00207       -15.29870         5.83382
   C       -8.70739       -14.40198         4.87890
   C       -8.18816       -12.99472         4.83966
   C       -7.10675       -12.60456         5.53574
   C       -6.41450       -13.52165         6.36273
   C       -5.27188       -13.41317         7.12400
   C       -4.36552       -12.34671         7.33545
   C       -3.26473       -12.54430         8.09956
   C      -10.20028       -14.37794         5.06851
   C      -10.83079       -14.73750         6.18926
   C      -12.25540       -14.70509         6.36099
   S      -12.95715       -15.31897         7.82721
   C      -14.56619       -14.98085         7.26288
   C      -14.52954       -14.41483         6.00487
   C      -13.23724       -14.26294         5.50262
   C      -15.71666       -15.28829         8.03978
   C      -17.04055       -15.10726         7.68699
   C      -17.93665       -15.52755         8.66492
   C      -17.32276       -16.03819         9.79126
   S      -15.58884       -15.99067         9.62412
   C      -17.94016       -16.55368        10.95693
   S      -19.66850       -16.64393        11.08048
   C      -19.56066       -17.33795        12.67973
   C      -18.23267       -17.47343        13.06150
   C      -17.32968       -17.03938        12.10276
   C      -20.70471       -17.69328        13.41877
   C      -21.98655       -17.55564        12.97035
   C      -23.09437       -17.93492        13.74669
   C      -24.40404       -17.84049        13.34633
   C      -25.57298       -18.22096        14.11004
   C      -25.60713       -18.73058        15.38361
   C      -26.79151       -19.07848        16.06634
   N      -27.71290       -19.38236        16.68023
   C      -24.48542       -18.98222        16.20035
   N      -23.63028       -19.21677        16.93077
   C      -26.74767       -17.96243        13.27727
   C      -26.32477       -17.43522        12.04561
   C      -24.84813       -17.33097        12.03004
   O      -24.17081       -16.91328        11.11424
   C      -27.21895       -17.09443        11.05221
   C      -28.57406       -17.28453        11.29208
   C      -29.00528       -17.80875        12.51480
   C      -28.09969       -18.15045        13.51348
  Cl      -30.68377       -18.04008        12.79957
  Cl      -29.72052       -16.87399        10.08071
   H       10.21211        -4.98197         5.32265
   H        5.69887        -5.35991         7.38942
   H       10.87097        -8.38014         9.37921
   H        9.18839       -12.03764        12.10895
   H       10.78838       -10.20234        11.23840
   H        7.26934       -13.48514        12.52856
   H        4.93688       -14.58684        12.56253
   H        0.16819       -15.30004        11.32829
   H        2.60535       -15.18940        12.15819
   H       -0.69323       -12.31134         8.91393
   H       -1.74311       -14.96422        10.02320
   H       -3.69188       -15.79277         9.06403
   H       -5.36636       -17.19756         8.62407
   H       -8.28757       -17.40206         7.86680
   H       -7.73869       -16.37234         9.20568
   H       -7.06109       -19.19573         8.98236
   H       -8.21969       -18.58009         9.97979
   H       -5.04970       -17.65096         6.14938
   H       -6.79316       -17.94650         6.03745
   H       -4.99788       -19.44363         7.78462
   H       -5.71462       -19.99231         6.41643
   H       -8.39535       -16.30205         5.91281
   H       -8.53347       -14.83441         3.87634
   H       -8.72903       -12.30734         4.20741
   H       -6.75047       -11.58650         5.47224
   H       -4.55853       -11.38705         6.87854
   H       -2.57790       -11.72932         8.26400
   H      -10.76062       -14.00385         4.22386
   H      -10.26339       -15.09461         7.03847
   H      -15.41311       -14.12198         5.46794
   H      -13.02983       -13.83757         4.53783
   H      -17.34293       -14.68583         6.74622
   H      -19.00645       -15.46849         8.56987
   H      -17.94734       -17.88127        14.01493
   H      -16.26024       -17.06626        12.21580
   H      -20.52659       -18.10671        14.40459
   H      -22.16438       -17.14721        11.98567
   H      -22.88091       -18.33320        14.73031
   H      -26.87107       -16.69128        10.11429
   H      -28.47139       -18.55186        14.44174
*
