# ORCA input file
# SCF done       -232.875560287561          0.000784965583
! CAM-B3LYP def2-SVP def2/J RIJCOSX Grid4 TightSCF
%maxcore 5000
%tddft
    Mode sTDDFT
    Ethresh 5.0
    maxcore 5000
end

%pal
  nprocs 6
  end
* xyz 0 1
   C       -2.29351        -2.40572         7.40562
   C       -2.10271        -1.16603         6.86711
   C       -2.55438         0.03138         7.46716
   N       -2.91366         1.02961         7.90119
   C       -1.38220        -0.93070         5.67818
   N       -0.78493        -0.69131         4.72770
   C       -2.85587        -2.70440         8.71388
   C       -2.52311        -4.02620         9.07131
   C       -2.91985        -4.57081        10.27675
   C       -3.66970        -3.78404        11.14230
   C       -4.01477        -2.47092        10.78709
   C       -3.60905        -1.92339         9.57591
  Cl       -4.95577        -1.52119        11.85838
  Cl       -4.17994        -4.42271        12.64741
   C       -1.77345        -4.66940         7.97674
   O       -1.29074        -5.76925         7.93746
   C       -1.82000        -3.67056         6.85576
   C       -1.63852        -4.08172         5.59102
   C       -1.95727        -3.38053         4.35917
   C       -1.00805        -3.27667         3.34060
   C        0.40786        -3.72329         3.35490
   O        0.99542        -4.30318         4.22737
   N        0.93201        -3.32934         2.12125
   C       -0.01709        -2.67363         1.32022
   O        0.18556        -2.26454         0.21240
   C       -1.25803        -2.62781         2.13431
   C       -2.48332        -2.05295         1.85417
   C       -3.44665        -2.16565         2.84927
   C       -3.20771        -2.80359         4.06800
   C       -4.38352        -2.82583         4.96549
   O       -4.47711        -3.31453         6.05439
   S       -5.74697        -1.96729         4.18435
   C       -4.80776        -1.60775         2.69400
   O       -5.24949        -1.01786         1.75953
   C        2.22392        -3.52821         1.65518
   C        3.23531        -4.05731         2.35667
   C        4.54200        -4.25086         1.81406
   C        5.63847        -4.74408         2.50618
   C        5.54011        -5.10825         3.85854
   N        5.39776        -5.38917         4.96108
   C        6.79953        -4.84104         1.69282
   C        6.53902        -4.42281         0.39290
   S        4.92041        -3.89457         0.14417
   S        7.87820        -4.54872        -0.70405
   C        8.82201        -5.18549         0.60313
   C        8.14829        -5.27999         1.81911
   C        8.99127        -5.81419         2.82307
   C        8.68551        -5.94829         4.19058
   N        8.52502        -6.02913         5.32253
   C       10.25821        -6.10814         2.34340
   S       10.45464        -5.71604         0.66621
   C       11.26641        -6.74959         3.16548
   C       10.89117        -7.85575         3.93635
   C        9.64789        -8.66338         3.87066
   O        8.78013        -8.66363         3.04252
   N        9.71888        -9.54493         4.95993
   C       10.94440        -9.47022         5.62687
   O       11.28298       -10.13093         6.56833
   C       11.71508        -8.41179         4.91159
   C       13.00450        -7.95463         5.11906
   C       13.42196        -6.91317         4.29809
   C       12.58552        -6.30842         3.35825
   C       13.19464        -5.15762         2.66237
   O       12.69295        -4.44138         1.84829
   S       14.88091        -4.94559         3.23858
   C       14.77579        -6.32207         4.38827
   O       15.67290        -6.66626         5.09203
   C        8.58241       -10.24099         5.33073
   C        8.40348       -10.92144         6.47463
   C        7.12243       -11.40964         6.87917
   C        5.93750       -10.78215         6.64337
   C        4.62889       -11.24949         7.07968
   C        4.29103       -12.54730         7.34874
   C        2.99869       -12.96313         7.73458
   N        1.97080       -13.35907         8.05577
   C        5.17663       -13.64115         7.23334
   N        5.83469       -14.57658         7.13845
   C        3.72681       -10.10518         7.08349
   C        4.41491        -8.98549         6.58238
   C        5.78939        -9.36093         6.20499
   O        6.60874        -8.64090         5.68337
   C        3.81488        -7.74850         6.45741
   C        2.48345        -7.62703         6.83615
   C        1.78752        -8.73513         7.34138
   C        2.40190        -9.97664         7.47012
  Cl        0.14683        -8.56100         7.81109
  Cl        1.68942        -6.11525         6.67104
   H       -2.65492        -5.58353        10.53711
   H       -3.90061        -0.91588         9.32700
   H       -1.21635        -5.07480         5.46729
   H       -2.68864        -1.54127         0.92753
   H        2.34379        -3.19477         0.63118
   H        3.09911        -4.36762         3.38278
   H       13.65643        -8.37463         5.86828
   H        7.81110       -10.17033         4.57776
   H        9.23303       -11.10430         7.14233
   H        7.12673       -12.29082         7.50936
   H        4.37069        -6.90643         6.06831
   H        1.83758       -10.80375         7.86852
*
