# ORCA input file
# SCF done       -223.531161295792          0.000922960769
! CAM-B3LYP def2-SVP def2/J RIJCOSX Grid4 TightSCF
%maxcore 5000
%tddft
    Mode sTDDFT
    Ethresh 5.0
    maxcore 5000
end

%pal
  nprocs 6
  end
* xyz 0 1
   C       -7.83932        -3.21602         3.56245
   C       -7.54020        -2.38670         2.50342
   C       -6.27055        -1.83511         2.25999
   N       -5.27664        -1.30155         2.03926
   C       -8.47886        -2.02965         1.51803
   N       -9.21419        -1.73203         0.68704
   C       -6.83779        -3.87175         4.39888
   C       -7.45264        -4.97593         5.05565
   C       -6.74075        -5.82603         5.84994
   C       -5.35469        -5.60603         6.02503
   C       -4.73947        -4.48746         5.39436
   C       -5.50562        -3.62024         4.58116
   C       -3.35889        -4.27673         5.58247
   C       -2.61530        -5.13875         6.34250
   C       -3.21966        -6.24815         6.95162
   C       -4.56120        -6.47523         6.79846
   C       -8.88621        -5.00426         4.70782
   O       -9.71903        -5.81295         5.05372
   C       -9.12045        -3.79264         3.87639
   C      -10.42355        -3.41832         3.65501
   C      -10.97565        -2.16517         3.32158
   C      -10.27866        -0.97442         3.36174
   C      -10.82810         0.28165         3.18235
   C      -12.26750         0.48695         2.99035
   C      -13.14946        -0.53311         2.88482
   S      -12.71085        -2.18851         2.98229
   C      -12.43609         1.89698         2.99552
   C      -11.19591         2.52935         3.18390
   C      -11.31392         3.93870         3.17978
   C      -12.60027         4.33165         3.00311
   S      -13.72328         3.02035         2.82795
   C      -10.17964         1.53108         3.27647
   C       -8.76788         1.66594         3.40273
   C       -8.08626         2.64143         4.03873
   C       -6.65326         2.56655         4.21608
   C       -6.08593         2.98864         5.39701
   C       -4.71330         2.77013         5.64408
   C       -3.91869         3.00774         6.75809
   C       -4.31971         3.51236         8.10257
   C       -5.09819         4.85027         8.04000
   N       -5.04605         5.63671         9.25298
   C       -5.12121         2.43033         8.85217
   N       -4.21087         1.39885         9.31976
   C       -2.57855         2.59298         6.41188
   C       -1.42569         2.63962         7.10418
   C       -0.13481         2.20015         6.50405
   C       -0.25054         1.63410         5.11983
   C       -1.41647         1.57094         4.45150
   C       -2.60437         2.06166         5.04156
   C       -3.90366         2.16286         4.59088
   C       -4.50703         1.78157         3.36948
   C       -5.83886         1.96473         3.19967
   C        0.52786         1.16471         7.37147
   C        1.80734         1.25538         7.75092
   C        2.54641         0.28340         8.51728
   C        1.99450        -0.82752         9.10185
   C        2.70293        -1.79550         9.81579
   C        4.13608        -1.62487        10.07788
   C        4.88236        -0.59857         9.60624
   S        4.25329         0.65411         8.62666
   C        4.51477        -2.72355        10.89767
   C        3.40761        -3.53435        11.13184
   C        3.72378        -4.64817        11.93857
   C        5.03681        -4.65033        12.29092
   S        5.93833        -3.31494        11.65976
   C        2.26094        -2.98424        10.44636
   C        0.99803        -3.59846        10.46576
   C       -0.09739        -3.26841         9.71082
   C       -1.33531        -3.89919         9.85896
   C       -2.47884        -3.51389         9.19184
   C       -3.77346        -4.14246         9.28222
   C       -4.08402        -5.31752         9.92372
   C       -5.36927        -5.89277         9.94171
   N       -6.38531        -6.42702         9.99179
   C       -3.17054        -6.14644        10.60238
   N       -2.48995        -6.88764        11.15807
   C       -4.71641        -3.33632         8.51390
   C       -4.00419        -2.25911         7.91528
   C       -2.58718        -2.33311         8.31669
   O       -1.71447        -1.54080         7.99718
   C       -4.62337        -1.33880         7.12154
   C       -6.01766        -1.44062         6.91320
   C       -6.73666        -2.51693         7.50540
   C       -6.06104        -3.46944         8.30228
   C       -8.12701        -2.60433         7.29431
   C       -8.78584        -1.64393         6.57570
   C       -8.08041        -0.56462         6.02400
   C       -6.72165        -0.47934         6.16508
   H       -7.22107        -6.66379         6.33287
   H       -5.01417        -2.77817         4.11933
   H       -2.89598        -3.42408         5.10720
   H       -1.55683        -4.97076         6.47735
   H       -2.61752        -6.92091         7.54511
   H       -5.03331        -7.32494         7.26958
   H      -11.14303        -4.20141         3.87955
   H       -9.23840        -1.03263         3.64186
   H      -14.20601        -0.37636         2.73341
   H      -10.49339         4.62356         3.29261
   H      -12.98136         5.33319         2.95859
   H       -8.20080         0.83207         3.00694
   H       -8.61535         3.43422         4.55023
   H       -6.70971         3.43533         6.15661
   H       -3.41019         3.68786         8.68854
   H       -6.15136         4.66052         7.82460
   H       -4.68938         5.46223         7.23158
   H       -5.42255         5.11357        10.03631
   H       -4.08780         5.88224         9.47819
   H       -5.91937         2.04926         8.19287
   H       -5.59584         2.86734         9.73738
   H       -3.72943         0.97172         8.53462
   H       -4.71943         0.66622         9.80258
   H       -1.37815         3.00314         8.12156
   H        0.52415         3.08205         6.46194
   H        0.66796         1.26928         4.68624
   H       -1.45915         1.15847         3.45401
   H       -3.90686         1.33718         2.59092
   H       -6.30675         1.68244         2.26922
   H       -0.09356         0.31540         7.61309
   H        2.38548         2.12142         7.44870
   H        0.92626        -0.92504         9.00621
   H        5.93693        -0.50825         9.81334
   H        3.02808        -5.40740        12.24643
   H        5.55247        -5.36917        12.89711
   H        0.89716        -4.43211        11.15222
   H       -0.03476        -2.50290         8.95885
   H       -1.39627        -4.71882        10.56309
   H       -4.06604        -0.53769         6.65600
   H       -6.63405        -4.27213         8.73737
   H       -8.66481        -3.43685         7.72357
   H       -9.85484        -1.70749         6.43341
   H       -8.61606         0.20867         5.49446
   H       -6.17265         0.33711         5.72104
*
