# ORCA input file
# SCF done       -194.158539604667          0.000936983464
! CAM-B3LYP def2-SVP def2/J RIJCOSX Grid4 TightSCF
%maxcore 5000
%tddft
    Mode sTDDFT
    Ethresh 5.0
    maxcore 5000
end

%pal
  nprocs 6
  end
* xyz 0 1
   C       -4.53359        -2.33708        -1.22773
   C       -3.16193        -2.33132        -1.24248
   C       -2.37215        -3.43794        -1.61655
   N       -1.67732        -4.30102        -1.91753
   C       -2.34582        -1.24542        -0.86190
   N       -1.60953        -0.41889        -0.55511
   C       -5.37769        -3.48468        -1.52788
   C       -6.72503        -3.13423        -1.27168
   C       -7.76784        -4.00762        -1.46259
   C       -7.46650        -5.29212        -1.92689
   C       -6.11655        -5.63442        -2.17983
   C       -5.06244        -4.75054        -1.98813
   S       -5.96863        -7.26820        -2.75395
   C       -7.69748        -7.46656        -2.64511
   C       -8.35418        -6.36777        -2.20350
  Br       -8.47344        -9.10347        -3.13248
   C       -6.79574        -1.73683        -0.79600
   O       -7.80934        -1.13673        -0.51323
   C       -5.39698        -1.23563        -0.83145
   C       -4.99711         0.06278        -0.73441
   C       -5.72268         1.20546        -0.25968
   C       -5.36676         2.46744        -0.77491
   C       -6.02276         3.58735        -0.33800
   C       -7.02189         3.48991         0.65093
   C       -7.34902         2.25618         1.19791
   C       -6.70461         1.12635         0.73937
   C       -7.52581         4.81607         0.92606
   C       -6.83699         5.73233         0.11119
   C       -5.82422         5.02512        -0.75626
   C       -4.39233         5.50562        -0.45303
   C       -4.00771         5.33543         1.01171
   C       -6.13181         5.23051        -2.25166
   C       -7.54466         4.80187        -2.62944
   C       -7.13127         7.07016         0.16480
   C       -8.13650         7.53157         1.03116
   C       -8.80816         6.60785         1.84399
   C       -8.50983         5.26143         1.80002
   C       -8.44341         8.93857         0.99414
   C       -9.44942         9.58588         1.61577
   C       -9.71567        10.98022         1.42175
   O      -10.31669        11.66638         2.43636
   C      -10.37100        12.94886         2.12465
   C       -9.82080        13.15981         0.87896
   N       -9.69111        14.38423         0.21087
   O      -10.20762        15.36737         0.70872
   O       -9.06126        14.38352        -0.84266
   C       -9.40880        11.87240         0.39043
   N       -8.91230        11.65603        -0.85865
   C       -8.99787        10.48860        -1.54965
   C       -8.36251        10.24244        -2.72912
   C       -8.43959         9.04216        -3.48472
   C       -7.71293         9.06359        -4.63334
   C       -7.01320        10.27167        -4.85649
   S       -7.30564        11.39671        -3.54182
   C       -6.19646        10.59004        -5.92221
   C       -5.91101         9.80089        -7.05987
   C       -5.06593        10.39568        -7.94398
   C       -4.61588        11.68643        -7.56157
   S       -5.34451        12.11504        -6.01819
   C       -3.74420        12.45766        -8.28355
   C       -3.20113        13.72426        -7.97696
   C       -2.29247        14.40599        -8.79504
   C       -1.93701        15.62520        -8.17050
   C       -1.08129        16.63893        -8.54620
   C       -0.94033        17.72912        -7.67531
   C       -0.17264        18.88499        -7.75574
   C       -0.39452        19.67916        -6.59085
   C       -1.30329        19.01251        -5.78496
   C       -1.67146        17.78914        -6.42316
   C       -2.52575        16.78538        -6.04643
   C       -2.66748        15.68642        -6.91798
   C       -3.42767        14.53492        -6.81479
   C        0.25136        20.94951        -6.35809
   C        0.06176        21.73092        -5.29848
   H       -8.78425        -3.70944        -1.25816
   H       -4.05211        -5.05685        -2.20145
   H       -9.42041        -6.31555        -2.07932
   H       -4.00001         0.29331        -1.09302
   H       -4.59311         2.53300        -1.52675
   H       -8.09411         2.17912         1.97498
   H       -6.93507         0.17051         1.17831
   H       -4.31372         6.55944        -0.72828
   H       -3.69480         4.94432        -1.07795
   H       -4.68440         5.89408         1.65484
   H       -2.99676         5.70044         1.17621
   H       -4.04520         4.28766         1.30102
   H       -5.40994         4.65920        -2.83889
   H       -5.99785         6.28727        -2.49378
   H       -7.69783         3.74641        -2.41557
   H       -7.71393         4.96593        -3.69127
   H       -8.28187         5.37424        -2.07035
   H       -6.61058         7.77743        -0.46527
   H       -9.57445         6.95619         2.51903
   H       -9.03909         4.56403         2.43188
   H       -7.79178         9.51542         0.35139
   H      -10.08464         9.09415         2.33762
   H      -10.79419        13.64067         2.82551
   H       -8.58617        12.49342        -1.34223
   H       -9.61772         9.71822        -1.11667
   H       -9.02719         8.20748        -3.14607
   H       -7.65390         8.24270        -5.32510
   H       -6.34074         8.82476        -7.19619
   H       -4.74064         9.94707        -8.86647
   H       -3.41085        12.02579        -9.22041
   H       -1.92133        14.05898        -9.74219
   H       -0.53232        16.60100        -9.47679
   H        0.48804        19.15162        -8.56198
   H       -1.67985        19.34108        -4.83444
   H       -3.07571        16.82023        -5.11649
   H       -4.07867        14.28764        -5.99728
   H        0.93986        21.26119        -7.13410
   H       -0.61384        21.46365        -4.50472
   H        0.57810        22.66871        -5.19020
*
