# ORCA input file
# SCF done       -186.759962176906          0.000865644320
! CAM-B3LYP def2-SVP def2/J RIJCOSX Grid4 TightSCF
%maxcore 5000
%tddft
    Mode sTDDFT
    Ethresh 5.0
    maxcore 5000
end

%pal
  nprocs 6
  end
* xyz 0 1
   C       -6.82426        -0.32250        -2.90130
   C       -5.94748        -0.23421        -3.94808
   C       -6.10425        -0.91831        -5.17164
   N       -6.17979        -1.45673        -6.18259
   C       -4.79146         0.57628        -3.95136
   N       -3.85104         1.22905        -4.03246
   C       -8.07865        -1.06363        -2.88721
   C       -8.75649        -0.79759        -1.67140
   C       -9.97492        -1.35419        -1.36611
   C      -10.55590        -2.20991        -2.30751
   C       -9.87047        -2.47230        -3.51821
   C       -8.63680        -1.91290        -3.82548
   S      -10.76319        -3.56317        -4.53416
   C      -12.02810        -3.64930        -3.33696
   C      -11.79631        -2.90089        -2.23244
  Br      -13.53414        -4.71911        -3.65782
   C       -7.94384         0.10911        -0.83861
   O       -8.17525         0.45211         0.30039
   C       -6.71638         0.37430        -1.63402
   C       -5.62698         0.99542        -1.11713
   N       -5.69525         1.73669         0.02689
   C       -4.68982         1.73937         1.03048
   O       -3.64735         1.14695         0.92968
   C       -5.23114         2.54639         2.10892
   C       -6.44354         3.05481         1.76641
   C       -6.73870         2.61503         0.36944
   O       -7.58250         2.98616        -0.40019
   C       -7.32989         3.87184         2.55194
   C       -8.36221         4.60981         1.94712
   C       -9.19151         5.37000         2.73123
   C       -9.03725         5.40044         4.13044
   C       -8.01982         4.67127         4.73791
   C       -7.17386         3.92540         3.94864
   C      -10.05643         6.25231         4.68849
   C      -10.83420         6.77367         3.63540
   C      -10.34215         6.25102         2.30553
   C       -9.85961         7.39493         1.39385
   C       -8.77548         8.24932         2.03996
   C      -11.43094         5.43836         1.58037
   C      -11.96086         4.28051         2.41750
   C      -11.87714         7.62638         3.88689
   C      -12.18931         7.97264         5.21544
   C      -11.41498         7.42247         6.25454
   C      -10.35443         6.58117         6.00621
   C      -13.26781         8.85086         5.55561
   C      -13.99899         9.61622         4.69916
   C      -15.05051        10.44703         5.11812
   C      -15.76606        11.28028         4.29333
   C      -16.84418        12.11948         4.66153
   C      -17.35977        12.85511         3.63658
   C      -16.71471        12.64629         2.39964
   S      -15.43493        11.46381         2.57743
   C      -16.98481        13.26067         1.19049
   C      -17.98359        14.21919         0.91239
   C      -17.98820        14.65093        -0.37865
   C      -16.99422        14.06617        -1.20373
   S      -16.05386        12.92537        -0.25006
   C      -16.80684        14.35858        -2.53014
   C      -15.85129        13.85359        -3.43565
   C      -15.76789        14.23440        -4.77898
   C      -14.69899        13.53467        -5.38880
   C      -14.20727        13.54473        -6.67539
   C      -13.11363        12.71234        -6.96311
   C      -12.40647        12.49461        -8.13660
   C      -11.37409        11.53515        -7.88882
   C      -11.44546        11.16314        -6.55896
   C      -12.52045        11.87216        -5.93689
   C      -13.00411        11.85883        -4.65710
   C      -14.10609        12.69249        -4.36411
   C      -14.80843        12.89334        -3.19278
   C      -10.41849        11.02704        -8.84337
   C      -10.35292        11.36560       -10.12844
   H      -10.46555        -1.13325        -0.43119
   H       -8.14987        -2.14873        -4.75709
   H      -12.47000        -2.83822        -1.39741
   H       -4.63349         0.89289        -1.53871
   H       -4.69181         2.68552         3.02646
   H       -8.48514         4.57617         0.87722
   H       -7.89665         4.68704         5.81046
   H       -6.39216         3.34298         4.41062
   H      -10.71516         8.02540         1.14261
   H       -9.47714         6.96323         0.46684
   H       -9.13905         8.70147         2.96033
   H       -8.47300         9.04446         1.36247
   H       -7.90053         7.64739         2.27562
   H      -11.01233         5.04862         0.65050
   H      -12.25466         6.10811         1.32402
   H      -11.16291         3.57933         2.65130
   H      -12.73497         3.74835         1.86956
   H      -12.38684         4.64226         3.35110
   H      -12.46997         8.01817         3.07491
   H      -11.66168         7.68256         7.27425
   H       -9.76927         6.17941         6.82007
   H      -13.50040         8.92002         6.61181
   H      -13.77510         9.62010         3.64074
   H      -15.32383        10.43872         6.16552
   H      -17.20492        12.15200         5.67456
   H      -18.17955        13.54324         3.74022
   H      -18.66837        14.56219         1.66691
   H      -18.67662        15.37901        -0.77095
   H      -17.49352        15.08900        -2.94284
   H      -16.41070        14.94177        -5.27016
   H      -14.64308        14.16800        -7.44357
   H      -12.60034        12.96877        -9.08135
   H      -10.80507        10.45641        -6.06335
   H      -12.56967        11.23730        -3.88671
   H      -14.61072        12.41341        -2.25259
   H       -9.71429        10.30822        -8.44325
   H      -11.03292        12.07236       -10.57287
   H       -9.61114        10.94377       -10.78402
*
