# ORCA input file
# SCF done       -210.594931485099          0.000872625447
! CAM-B3LYP def2-SVP def2/J RIJCOSX Grid4 TightSCF
%maxcore 5000
%tddft
    Mode sTDDFT
    Ethresh 5.0
    maxcore 5000
end

%pal
  nprocs 6
  end
* xyz 0 1
   C      -14.77771         5.68171        -1.70456
   C      -15.61414         4.90883        -0.94344
   C      -16.96953         5.21095        -0.69640
   N      -18.07523         5.40779        -0.46157
   C      -15.21683         3.71408        -0.30857
   N      -14.92625         2.73976         0.22395
   C      -15.13369         6.92406        -2.38305
   C      -13.99254         7.41978        -3.06950
   C      -14.02390         8.56578        -3.82838
   C      -15.23176         9.26460        -3.90128
   C      -16.35880         8.78004        -3.19206
   C      -16.33088         7.61247        -2.43755
   S      -17.73459         9.81682        -3.40202
   C      -16.79305        10.86479        -4.43473
   C      -15.51332        10.46115        -4.61176
  Br      -17.57828        12.39917        -5.16944
   C      -12.86472         6.52213        -2.82382
   O      -11.70840         6.64224        -3.22169
   C      -13.37973         5.42961        -1.98575
   C      -12.57722         4.38700        -1.59998
   N      -11.28747         4.37786        -1.97136
   C      -10.35007         3.44047        -1.71282
   S      -10.71204         1.97085        -0.87025
   C       -9.05337         1.48808        -1.04892
   N       -8.67257         0.24804        -0.50654
   O       -7.51104        -0.08438        -0.63029
   O       -9.54442        -0.39385         0.04693
   C       -8.27790         2.39631        -1.71166
   C       -9.00131         3.54220        -2.10608
   C       -8.47877         4.68318        -2.78430
   C       -7.21576         4.83977        -3.25523
   C       -6.80658         6.03281        -3.89353
   S       -7.86471         7.40666        -4.02432
   C       -6.67645         8.36437        -4.88282
   C       -5.50547         7.61898        -5.04322
   C       -5.56782         6.31703        -4.47608
   C       -4.35450         5.60707        -4.62259
   C       -3.41511         6.35549        -5.26541
   C       -2.02662         5.99981        -5.58097
   O       -1.22879         6.76300        -6.06140
   O       -1.75380         4.72580        -5.26113
   C       -0.42408         4.29963        -5.52994
   S       -3.96934         7.94734        -5.74664
   C       -7.01963         9.67386        -5.26657
   C       -6.21247        10.52200        -6.07414
   C       -6.66282        11.83234        -6.47125
   N       -5.86137        12.60816        -7.21871
   C       -4.70537        12.14467        -7.61880
   C       -4.28223        10.82208        -7.27618
   N       -5.03057        10.07045        -6.49963
   C       -3.05161        10.32911        -7.77566
   N       -2.05779         9.98764        -8.23110
   C       -3.85844        12.98112        -8.39334
   N       -3.15494        13.63064        -9.02039
   C       -7.94689        12.33522        -6.14822
   C       -8.72506        11.51759        -5.29941
   C       -8.26475        10.22290        -4.87331
   N       -9.14491         9.61749        -4.08260
   S      -10.41909        10.57058        -3.87424
   N       -9.92118        11.80314        -4.78035
   C       -8.34672        13.60738        -6.64056
   C       -9.60114        14.11216        -6.80409
   C      -10.90158        13.49007        -6.79338
   C      -11.18069        12.18791        -7.13057
   C      -12.45455        11.60801        -7.03062
   N      -13.45703        11.06176        -6.89413
   C      -10.21910        11.27786        -7.60922
   N       -9.47799        10.49959        -8.01418
   C      -11.88795        14.53652        -6.56383
   C      -11.24262        15.79641        -6.65575
   C       -9.79805        15.58736        -6.89551
   O       -8.94814        16.42595        -7.07487
   C      -11.92150        16.98215        -6.51827
   C      -13.29727        16.92299        -6.26571
   C      -13.92988        15.66016        -6.16442
   C      -13.24509        14.46103        -6.31617
   S      -15.62838        15.81650        -5.83669
   C      -15.47139        17.55268        -5.84522
   C      -14.21210        17.99450        -6.07958
  Br      -16.98401        18.61679        -5.53963
   H      -13.14934         8.91202        -4.35667
   H      -17.21711         7.27556        -1.92622
   H      -14.79971        10.95681        -5.24594
   H      -12.93387         3.55774        -1.00296
   H      -11.02849         5.20853        -2.54169
   H       -7.23122         2.23393        -1.89038
   H       -9.15540         5.51419        -2.93548
   H       -6.47986         4.05424        -3.16767
   H       -4.17808         4.60825        -4.26852
   H       -0.38755         3.24374        -5.27563
   H        0.28459         4.86659        -4.92299
   H       -0.18347         4.45255        -6.58370
   H       -7.53294        14.28563        -6.87710
   H      -11.40937        17.92773        -6.60265
   H      -13.76899        13.52381        -6.23139
   H      -13.93869        19.03303        -6.11883
*
