# ORCA input file
# SCF done       -221.504501255732          0.000707493296
! CAM-B3LYP def2-SVP def2/J RIJCOSX Grid4 TightSCF
%maxcore 5000
%tddft
    Mode sTDDFT
    Ethresh 5.0
    maxcore 5000
end

%pal
  nprocs 6
  end
* xyz 0 1
   C       -3.51041        -0.96874        -0.34356
   C       -4.34828        -1.85301         0.28548
   C       -4.04346        -3.21235         0.50469
   N       -3.84541        -4.32188         0.72282
   C       -5.63602        -1.53792         0.76767
   N       -6.70206        -1.36230         1.15737
   C       -2.23369        -1.29586        -0.96401
   C       -1.73755        -0.14015        -1.61559
   C       -0.55138        -0.13240        -2.30720
   C        0.17973        -1.32398        -2.36131
   C       -0.32124        -2.47217        -1.70286
   C       -1.52052        -2.47958        -1.00179
   S        0.74429        -3.83203        -1.88953
   C        1.83172        -2.85401        -2.83828
   C        1.42074        -1.57480        -3.00772
  Br        3.40820        -3.61289        -3.51258
   C       -2.67096         0.98235        -1.40433
   O       -2.49312         2.13964        -1.72957
   C       -3.78132         0.43347        -0.59951
   C       -4.76464         1.17290        -0.00110
   C       -5.21776         2.46346        -0.34834
   S       -5.88303         3.45750         0.92092
   C       -6.31461         4.71290        -0.19771
   C       -5.98402         4.34744        -1.49586
   C       -5.37313         3.08638        -1.58348
   C       -5.02914         2.47129        -2.88890
   C       -5.79194         3.10070        -4.05254
   C       -5.29734         2.45629        -5.35875
   O       -4.63072         1.45990        -5.36410
   O       -5.68901         3.04363        -6.48377
   C       -5.61187         4.62272        -3.99066
   O       -6.24171         5.22316        -5.11827
   C       -6.25449         5.17873        -2.71084
   C       -6.93185         5.87279         0.36431
   C       -7.53806         6.89063        -0.27580
   C       -8.13420         8.00648         0.44408
   C       -9.35308         8.62905         0.11925
   N      -10.26806         8.39411        -0.89184
   C      -10.06475         7.56779        -2.05517
   C      -10.36002         6.09357        -1.78275
   C      -11.36429         9.20481        -0.70333
   C      -11.13946        10.02569         0.42654
   C       -9.86660         9.64469         0.96241
   C       -9.17308        10.10098         2.07254
   C       -7.95617         9.51808         2.36340
   C       -7.46852         8.48828         1.57568
   C      -12.05181        10.99355         0.81526
   C      -13.18443        11.16999         0.04169
   C      -13.41452        10.36824        -1.06278
   C      -12.54565         9.34051        -1.45480
   C      -12.95597         8.47567        -2.54085
   C      -13.62440         8.93864        -3.62573
   C      -14.12888         8.16082        -4.68819
   C      -14.69322         8.74227        -5.79395
   C      -15.22222         8.14666        -6.96606
   C      -15.62690         9.03698        -7.91745
   C      -15.42606        10.38655        -7.55295
   S      -14.78090        10.49214        -5.93833
   C      -15.52972        11.55749        -8.28450
   C      -15.87183        11.82383        -9.62396
   C      -15.57677        13.10042       -10.01790
   C      -14.94908        13.88718        -9.02352
   S      -14.91845        13.01022        -7.52562
   C      -14.42445        15.16678        -9.14602
   C      -13.62199        15.84129        -8.23103
   C      -12.86584        15.39037        -7.15391
   C      -12.29721        14.12605        -6.80876
   C      -12.02683        13.06662        -7.65354
   C      -11.50514        11.83015        -7.23865
   N      -11.12148        10.78276        -6.95718
   C      -12.18512        13.12933        -9.04831
   N      -12.28059        13.14134       -10.19320
   C      -11.89287        14.17931        -5.40621
   C      -12.00705        15.51593        -4.95636
   C      -12.55422        16.34210        -6.06163
   O      -12.74273        17.53952        -6.05562
   C      -11.66130        15.89175        -3.68278
   C      -11.19309        14.89772        -2.81197
   C      -11.11143        13.56290        -3.26577
   C      -11.45499        13.18312        -4.55814
   S      -10.51014        12.49658        -2.02910
   C      -10.35881        13.84911        -0.93953
   C      -10.75178        15.03199        -1.46559
  Br       -9.66773        13.57921         0.78014
   H       -0.20017         0.76244        -2.79621
   H       -1.85858        -3.37811        -0.51312
   H        1.96859        -0.83734        -3.56533
   H       -5.24970         0.74872         0.87095
   H       -5.20229         1.39335        -2.86430
   H       -3.95528         2.60382        -3.06809
   H       -6.86363         2.87594        -3.97918
   H       -6.12133         3.90218        -6.30146
   H       -4.53547         4.84667        -4.00036
   H       -6.02766         6.16141        -5.14448
   H       -7.33605         5.21973        -2.88588
   H       -5.89742         6.19974        -2.54484
   H       -6.94288         5.87403         1.44703
   H       -7.59888         6.88937        -1.34846
   H       -9.03784         7.69642        -2.40531
   H      -10.71847         7.94420        -2.84673
   H       -9.68791         5.70050        -1.02331
   H      -10.23921         5.51461        -2.69511
   H      -11.37892         5.96900        -1.42359
   H       -9.57865        10.88990         2.68531
   H       -7.38166         9.85511         3.21214
   H       -6.51311         8.05168         1.82436
   H      -11.87367        11.59425         1.69296
   H      -13.90886        11.92511         0.30704
   H      -14.33304        10.49589        -1.61513
   H      -12.77007         7.41432        -2.45123
   H      -13.75880        10.00896        -3.72421
   H      -14.05824         7.08265        -4.64261
   H      -15.26949         7.07757        -7.07827
   H      -16.03294         8.76371        -8.87506
   H      -16.29345        11.07234       -10.26724
   H      -15.72532        13.47547       -11.01452
   H      -14.71448        15.71125       -10.03551
   H      -13.60938        16.92371        -8.32811
   H      -11.74285        16.91866        -3.36261
   H      -11.37991        12.15234        -4.86117
   H      -10.72481        15.96444        -0.93155
*
