# ORCA input file
# SCF done       -187.169418733799          0.000974130149
! CAM-B3LYP def2-SVP def2/J RIJCOSX Grid4 TightSCF
%maxcore 5000
%tddft
    Mode sTDDFT
    Ethresh 5.0
    maxcore 5000
end

%pal
  nprocs 6
  end
* xyz 0 1
   C      -13.74551       -18.14533        -0.98788
   C      -13.69191       -17.17158        -1.95935
   C      -14.30006       -17.28376        -3.22489
   N      -14.76797       -17.31407        -4.27378
   C      -13.02623       -15.93506        -1.84997
   N      -12.51288       -14.90650        -1.84791
   C      -14.42381       -19.43313        -1.12738
   C      -14.23098       -20.17792         0.06116
   C      -14.75314       -21.43446         0.24119
   C      -15.50464       -21.98508        -0.80322
   C      -15.69155       -21.23444        -1.98641
   C      -15.16183       -19.96220        -2.16842
   S      -16.65216       -22.10006        -3.14803
   C      -16.78758       -23.44044        -2.04119
   C      -16.14755       -23.25223        -0.86333
  Br      -17.76061       -24.96301        -2.54642
   C      -13.41949       -19.38197         1.00749
   O      -13.06608       -19.72938         2.11831
   C      -13.15060       -18.10429         0.32258
   C      -12.47063       -17.04141         0.88370
   C      -11.90644       -17.02822         2.15436
   C      -11.29056       -15.91079         2.68567
   C      -10.70736       -15.79277         3.96754
   C      -10.20847       -14.55309         4.24338
   C      -10.37274       -13.63054         3.18894
   S      -11.16477       -14.39343         1.82620
   C      -10.02568       -12.29181         3.16250
   C       -9.45249       -11.51508         4.19557
   C       -9.28691       -10.20186         3.87931
   C       -9.71202        -9.86662         2.56889
   S      -10.31944       -11.30916         1.74993
   C       -9.69802        -8.62734         1.99698
   N      -10.08635        -8.40198         0.71999
   C      -10.20843        -7.22058         0.04935
   S      -11.14409        -7.26978        -1.42206
   C      -10.99133        -5.55068        -1.56991
   N      -11.58257        -4.92998        -2.67316
   O      -11.48033        -3.71961        -2.76428
   O      -12.16356        -5.65522        -3.46399
   C      -10.26892        -4.98913        -0.55042
   C       -9.78268        -5.92931         0.37608
   C       -8.91777        -5.50988         1.46437
   C       -7.81811        -6.16223         1.87082
   C       -6.93489        -5.77457         2.95015
   C       -5.77188        -6.53142         3.16180
   C       -4.92543        -6.20936         4.19313
   C       -5.21666        -5.12993         5.04507
   C       -6.36293        -4.37382         4.84641
   C       -7.20859        -4.70049         3.80582
   C       -4.17143        -5.03290         6.03988
   C       -3.23223        -6.05082         5.80305
   C       -3.63583        -6.87963         4.60527
   C       -3.86861        -8.35203         4.99100
   C       -4.91437        -8.51695         6.08733
   C       -2.58015        -6.79930         3.48700
   C       -2.29238        -5.36873         3.04766
   C       -2.12956        -6.18335         6.60908
   C       -1.93490        -5.30146         7.68539
   C       -2.88324        -4.29229         7.90466
   C       -3.99183        -4.15112         7.09592
   C       -0.76391        -5.47664         8.51046
   C       -0.45207        -4.78914         9.62666
   C        0.72158        -5.00079        10.40872
   N        0.95879        -4.28107        11.54538
   C        2.13997        -4.66587        12.10911
   C        2.67864        -5.66598        11.30692
   C        1.79622        -5.87278        10.25068
   C        2.63646        -4.10081        13.28195
   C        3.07075        -3.62229        14.30644
   C        3.56844        -3.05383        15.48774
   C        4.71144        -3.42573        16.06086
   H      -14.58950       -21.97669         1.15924
   H      -15.33522       -19.43086        -3.08901
   H      -16.12817       -23.97477        -0.06793
   H      -12.37399       -16.13311         0.30130
   H      -11.95999       -17.91840         2.76401
   H      -10.68117       -16.62588         4.64705
   H       -9.73442       -14.28358         5.17013
   H       -9.18912       -11.94577         5.14435
   H       -8.87299        -9.46096         4.53970
   H       -9.37210        -7.77561         2.57212
   H      -10.42721        -9.21725         0.21928
   H      -10.07423        -3.93305        -0.49593
   H       -9.17516        -4.55077         1.89053
   H       -7.53107        -7.06963         1.35171
   H       -5.55454        -7.36342         2.50623
   H       -6.59453        -3.54380         5.49698
   H       -8.10430        -4.11694         3.65899
   H       -2.92183        -8.77897         5.32779
   H       -4.18488        -8.90201         4.10168
   H       -4.60595        -7.99711         6.99165
   H       -5.04747        -9.57048         6.32340
   H       -5.87210        -8.10996         5.76903
   H       -2.93212        -7.37814         2.63015
   H       -1.65729        -7.26055         3.84486
   H       -3.19412        -4.89441         2.66644
   H       -1.54149        -5.36292         2.26104
   H       -1.92136        -4.77832         3.88241
   H       -1.40368        -6.96385         6.42866
   H       -2.74471        -3.60081         8.72131
   H       -4.70712        -3.36367         7.28306
   H       -0.08365        -6.25181         8.18379
   H       -1.11509        -4.01580         9.99356
   H        0.35237        -3.56904        11.91861
   H        3.60627        -6.17336        11.48385
   H        1.92222        -6.57771         9.45333
   H        2.95546        -2.27231        15.92180
   H        5.32845        -4.19936        15.63585
   H        5.06040        -2.96578        16.96895
*
