# ORCA input file
# SCF done       -210.923521863215          0.000740872014
! CAM-B3LYP def2-SVP def2/J RIJCOSX Grid4 TightSCF
%maxcore 5000
%tddft
    Mode sTDDFT
    Ethresh 5.0
    maxcore 5000
end

%pal
  nprocs 6
  end
* xyz 0 1
   C      -10.24904         2.22659        -2.40959
   C      -11.61483         2.26996        -2.41822
   F      -12.25065         3.38686        -2.79196
   C      -12.37141         1.14341        -2.03478
   F      -13.70820         1.21550        -2.05305
   C      -11.75094        -0.01087        -1.64689
   C      -10.34455        -0.08651        -1.62556
   C       -9.57834         1.05083        -2.01548
   C       -8.16658         0.99708        -2.00556
   C       -7.53873        -0.15922        -1.61949
   C       -8.31194        -1.28715        -1.22424
   C       -9.67744        -1.26359        -1.22156
   C       -7.41794        -2.39016        -0.83026
   O       -7.73838        -3.45533        -0.35701
   C       -6.03184        -1.86113        -1.01595
   C       -6.12455        -0.49987        -1.52215
   C       -5.07809         0.29061        -1.90974
   C       -3.71933        -0.09248        -1.87100
   N       -2.59924        -0.34155        -1.88093
   C       -5.22312         1.59696        -2.42578
   N       -5.27996         2.66336        -2.84518
   C       -4.92001        -2.50648        -0.59515
   C       -4.88242        -3.90113        -0.21687
   C       -5.49456        -4.91507        -0.96964
   F       -6.08947        -4.60697        -2.12578
   C       -5.41642        -6.23632        -0.58399
   F       -5.98990        -7.17385        -1.35301
   C       -4.71770        -6.65524         0.56778
   C       -4.12834        -5.62809         1.32575
   C       -4.18726        -4.30667         0.92780
   F       -3.61368        -3.36856         1.69318
   F       -3.55405        -5.90623         2.50486
   C       -4.68535        -8.05096         0.88498
   C       -3.72154        -8.76522         1.53790
   C       -3.80880       -10.16620         1.80687
   C       -2.70519       -10.69520         2.38953
   C       -1.66728        -9.75130         2.60430
   S       -2.15743        -8.16873         2.05328
   C       -0.42833        -9.95556         3.17110
   C        0.11895       -11.16122         3.68315
   C        1.36363       -11.01714         4.19972
   C        1.88890        -9.69057         4.11421
   S        0.71153        -8.64484         3.34544
   C        3.07856        -9.29928         4.65704
   C        3.69684        -8.00762         4.62670
   C        4.50542        -7.61028         5.71102
   F        4.65026        -8.45640         6.74050
   C        5.10636        -6.37187         5.77003
   F        5.82832        -6.04067         6.84604
   C        5.00924        -5.44917         4.71471
   C        4.23241        -5.85338         3.62081
   C        3.59961        -7.08040         3.57648
   F        2.94163        -7.40053         2.45404
   F        4.06113        -5.01642         2.58604
   C        5.63114        -4.15549         4.82815
   C        6.12325        -3.34222         3.86644
   C        6.34761        -1.89597         4.19294
   O        6.36861        -1.40502         5.29432
   C        6.46940        -1.22320         2.88655
   C        6.53428         0.11342         2.61279
   C        6.60652         0.53552         1.26666
   C        6.60387        -0.43897         0.22572
   C        6.66365        -0.00971        -1.11553
   C        6.72717         1.32325        -1.40988
   C        6.73211         2.28608        -0.37976
   C        6.67312         1.90197         0.93052
   F        6.79510         3.58508        -0.69784
   F        6.78663         1.72942        -2.68364
   C        6.54397        -1.81555         0.53923
   C        6.48506        -2.20200         1.85181
   C        6.42821        -3.52710         2.45883
   C        6.81325        -4.69194         1.85457
   C        6.91375        -5.92673         2.52580
   N        7.01353        -6.94645         3.04270
   C        7.21796        -4.77854         0.50492
   N        7.55743        -4.90053        -0.58375
   H       -9.68542         3.09693        -2.70746
   H      -12.34374        -0.86390        -1.35607
   H       -7.61541         1.87553        -2.29983
   H      -10.23899        -2.13373        -0.91745
   H       -3.98633        -1.97061        -0.48066
   H       -5.51129        -8.62533         0.48478
   H       -4.69563       -10.72225         1.56015
   H       -2.60114       -11.72813         2.66861
   H       -0.42512       -12.08806         3.65776
   H        1.93876       -11.81190         4.64017
   H        3.59752       -10.03768         5.25489
   H        5.66711        -3.75038         5.83577
   H        6.52636         0.83884         3.41197
   H        6.66291        -0.73356        -1.91537
   H        6.67640         2.65133         1.70645
   H        6.52971        -2.53222        -0.26625
*
