# ORCA input file
# SCF done       -145.363741665122          0.000177289030
! CAM-B3LYP def2-SVP def2/J RIJCOSX Grid4 TightSCF
%maxcore 5000
%tddft
    Mode sTDDFT
    Ethresh 5.0
    maxcore 5000
end

%pal
  nprocs 6
  end
* xyz 0 1
   C       26.57926       -17.10007         9.65498
   C       26.04687       -16.01614         9.06488
   C       26.72774       -14.87909         8.53016
   C       25.90723       -13.94214         7.98708
   C       24.53290       -14.26385         8.05005
   S       24.30349       -15.80916         8.83503
   C       23.46838       -13.51637         7.56082
   C       23.51153       -12.28262         6.89656
   C       22.27537       -11.82385         6.50555
   C       21.21621       -12.66922         6.84550
   S       21.81552       -14.07427         7.69532
   C       19.86439       -12.48994         6.52927
   C       18.86061       -13.35609         6.86278
   C       17.52726       -13.23023         6.44350
   C       16.48018       -14.11070         6.69730
   C       15.29950       -13.77763         6.05774
   C       15.38918       -12.62198         5.29030
   S       16.98475       -11.93223         5.40556
   C       14.41959       -12.06950         4.43032
   C       13.20416       -12.63193         4.05340
   C       12.55402       -11.90909         3.07308
   C       13.22694       -10.75209         2.67899
   S       14.69798       -10.56621         3.59339
   C       12.83866        -9.93568         1.60572
   C       13.37305        -8.74302         1.20028
   S       12.88608        -8.05384        -0.35671
   C       13.87177        -6.60133        -0.16749
   C       14.51149        -6.68037         1.08461
   C       14.28034        -7.84796         1.82217
   N       14.92127        -7.90174         3.01318
   C       15.62589        -6.85487         3.21213
   S       15.58953        -5.64099         1.94275
   C       13.99192        -5.60423        -1.10232
   C       13.51926        -5.62961        -2.41930
   C       13.63774        -4.61320        -3.36721
   C       13.19422        -4.96563        -4.62768
   C       12.72549        -6.27325        -4.70365
   S       12.79818        -7.04466        -3.14220
   C       12.31867        -7.00058        -5.83821
   C       12.18058        -6.56694        -7.15168
   C       11.85881        -7.58060        -8.03737
   C       11.73993        -8.83406        -7.44441
   S       12.01041        -8.71181        -5.72224
   C       11.50583       -10.06524        -8.07646
   C       11.44728       -11.26304        -7.41894
   C       11.31016       -12.51741        -8.02318
   C       11.26378       -13.75288        -7.37124
   C       11.17367       -14.83359        -8.21596
   C       11.14864       -14.48472        -9.57384
   S       11.22622       -12.74562        -9.75407
   C       11.09213       -15.33405       -10.67197
   C       11.04232       -16.74635       -10.65936
   C       11.01370       -17.31741       -11.89161
   C       11.03926       -16.38239       -12.97221
   S       11.09632       -14.73875       -12.31587
   C       11.02747       -16.63959       -14.29130
   H       27.64417       -17.19064         9.77492
   H       25.96608       -17.90265        10.02092
   H       27.79995       -14.80815         8.57047
   H       26.25035       -13.02661         7.53866
   H       24.43280       -11.76067         6.71134
   H       22.11467       -10.90061         5.97683
   H       19.61946       -11.60663         5.95228
   H       19.09787       -14.22824         7.45921
   H       16.60183       -14.97700         7.32335
   H       14.39413       -14.35229         6.13377
   H       12.83485       -13.55430         4.46383
   H       11.61664       -12.19993         2.63229
   H       12.03493       -10.33053         0.99614
   H       16.21697        -6.69219         4.09066
   H       14.55512        -4.72770        -0.80633
   H       14.05377        -3.65176        -3.12237
   H       13.22941        -4.31197        -5.48056
   H       12.31994        -5.54029        -7.43911
   H       11.72290        -7.43428        -9.09444
   H       11.39815       -10.04788        -9.15354
   H       11.53536       -11.26393        -6.33909
   H       11.30224       -13.82747        -6.29855
   H       11.13231       -15.85489        -7.88333
   H       11.03100       -17.30043        -9.73747
   H       10.97710       -18.37585       -12.07790
   H       10.99425       -17.65257       -14.65106
   H       11.05172       -15.85164       -15.02106
*
