# ORCA input file
# SCF done       -206.470879868915          0.000618632293
! CAM-B3LYP def2-SVP def2/J RIJCOSX Grid4 TightSCF
%maxcore 5000
%tddft
    Mode sTDDFT
    Ethresh 5.0
    maxcore 5000
end

%pal
  nprocs 6
  end
* xyz 0 1
   C       -0.77795       -11.42335         2.17899
   C       -2.13371       -11.59208         2.12741
   F       -2.65605       -12.81785         2.31636
   C       -3.01479       -10.53044         1.88170
   C       -2.50223        -9.27829         1.68552
   C       -1.11197        -9.04781         1.72558
   C       -0.23250       -10.14047         1.97924
   C        1.16648        -9.93321         2.02798
   C        1.66482        -8.67622         1.82043
   C        0.78153        -7.59109         1.55183
   C       -0.57194        -7.75982         1.51132
   C        1.57143        -6.36754         1.31631
   O        1.16698        -5.24462         1.12361
   C        2.99224        -6.81888         1.30544
   C        3.03437        -8.16546         1.82276
   C        4.10342        -8.76504         2.43899
   C        5.33534        -8.11321         2.64416
   N        6.33991        -7.59847         2.85293
   C        4.05679       -10.05198         3.01022
   N        4.06882       -11.10326         3.47126
   C        3.92697        -5.99603         0.74892
   C        5.20470        -6.27933         0.22550
   C        5.81348        -7.47828        -0.10847
   C        7.04630        -7.30898        -0.72611
  Cl        8.00761        -8.62708        -1.24813
   C        7.43143        -5.97797        -0.89606
   S        6.20615        -4.93453        -0.24991
   C        8.57363        -5.47163        -1.55316
   C        8.89572        -4.13560        -1.78848
  Cl        7.97645        -2.82708        -1.17830
   C       10.01790        -3.94256        -2.58406
   C       10.61330        -5.12664        -2.98883
   S        9.76554        -6.49534        -2.30721
   C       11.68181        -5.33114        -3.88398
   C       12.11216        -4.42463        -4.82117
   C       13.11888        -4.61996        -5.80346
   C       13.21417        -3.61912        -6.72469
   C       12.29075        -2.57076        -6.52189
   S       11.34246        -2.87252        -5.08399
   C       12.00166        -1.45355        -7.28293
   C       12.53738        -0.99618        -8.50562
   C       11.90329         0.10339        -9.00506
   C       10.82863         0.57940        -8.20898
   S       10.69949        -0.40581        -6.76766
   C        9.94215         1.57855        -8.53286
   C        8.83981         1.98248        -7.75802
   C        8.53820         1.70404        -6.43307
   C        7.30196         2.19331        -6.03647
  Cl        6.70097         1.95660        -4.44967
   C        6.59366         2.86562        -7.03189
   S        7.55117         2.91372        -8.48715
   C        5.28057         3.37314        -6.95722
   C        4.51327         3.97753        -7.95141
  Cl        5.12681         4.30454        -9.51701
   C        3.21315         4.28764        -7.56383
   C        2.92590         3.90547        -6.26609
   S        4.33661         3.21863        -5.50768
   C        1.71229         4.10274        -5.56889
   C        1.31056         3.53932        -4.39526
   C        0.27778         4.21963        -3.56555
   O       -0.48269         5.08996        -3.92224
   C        0.44186         3.65149        -2.21246
   C       -0.15568         4.02634        -1.04371
   C        0.19025         3.35891         0.15294
   C        1.15393         2.30890         0.11558
   C        1.50186         1.65693         1.31457
   C        0.90972         2.04324         2.48472
   C       -0.04140         3.07108         2.54210
   C       -0.39171         3.71359         1.38733
   F        1.24354         1.42579         3.63229
   C        1.74759         1.93197        -1.11178
   C        1.39406         2.59178        -2.25687
   C        1.80882         2.40612        -3.64364
   C        2.31651         1.24640        -4.16825
   C        2.40795         1.00589        -5.55523
   N        2.44450         0.75863        -6.67553
   C        2.72984         0.14573        -3.39246
   N        3.10819        -0.76605        -2.80640
   H       -0.13023       -12.26376         2.37390
   H       -4.07533       -10.72392         1.85209
   H       -3.16025        -8.44411         1.49378
   H        1.80986       -10.77863         2.21494
   H       -1.22329        -6.92188         1.31315
   H        3.58705        -4.97477         0.60003
   H        5.36717        -8.44477         0.03516
   H       10.39216        -2.96454        -2.81762
   H       12.13545        -6.31276        -3.89474
   H       13.72567        -5.50820        -5.80836
   H       13.90308        -3.61784        -7.55050
   H       13.35648        -1.49677        -8.99037
   H       12.16069         0.58127        -9.93379
   H       10.05671         2.04614        -9.50134
   H        9.19151         1.19178        -5.75412
   H        2.49238         4.74091        -8.21935
   H        1.05275         4.86490        -5.97194
   H       -0.88197         4.82515        -1.03008
   H        2.22615         0.85753         1.30688
   H       -0.47510         3.33233         3.49437
   H       -1.12222         4.50833         1.40663
   H        2.47884         1.13895        -1.11470
*
