# ORCA input file
# SCF done       -217.425842819105          0.000823639168
! CAM-B3LYP def2-SVP def2/J RIJCOSX Grid4 TightSCF
%maxcore 5000
%tddft
    Mode sTDDFT
    Ethresh 5.0
    maxcore 5000
end

%pal
  nprocs 6
  end
* xyz 0 1
   C        1.23961         3.78099         3.94987
   C        0.13462         4.58572         3.98173
   F       -0.37867         4.95885         5.16670
   C       -0.49494         5.04468         2.81625
   C        0.01253         4.67726         1.60122
   C        1.15018         3.84906         1.50974
   C        1.77355         3.38937         2.70696
   C        2.90645         2.54513         2.64159
   C        3.39670         2.17536         1.41858
   C        2.78595         2.65922         0.22541
   C        1.68760         3.46978         0.25965
   C        3.53499         2.16051        -0.94057
   O        3.29077         2.31995        -2.11390
   C        4.71831         1.44798        -0.37254
   C        4.50274         1.29445         1.05144
   C        5.02803         0.32637         1.86735
   C        5.91826        -0.67646         1.43828
   N        6.62426        -1.52924         1.13294
   C        4.66391         0.15705         3.22044
   N        4.40505        -0.02943         4.32243
   C        5.75552         1.14762        -1.20141
   C        7.08518         0.80926        -0.86502
   C        7.77569         1.05688         0.31244
   C        9.07039         0.55652         0.27696
   C        9.38095        -0.07659        -0.94424
   S        8.08889        -0.02067        -2.04912
   C       10.68987        -0.60918        -0.84913
   C       11.20449        -0.31720         0.42785
   C       10.20207         0.42507         1.17682
   C       10.28048         0.86548         2.46501
   C       11.43266         0.66988         3.25521
   N       12.37613         0.51361         3.88747
   C        9.20351         1.54195         3.07656
   N        8.31887         2.09039         3.55730
   C       12.47786        -0.84122         0.63328
   C       12.93753        -1.53152        -0.47609
   S       11.77871        -1.52115        -1.79699
   C       14.16165        -2.23149        -0.60671
   C       14.61206        -2.94430        -1.70565
   C       15.84157        -3.55046        -1.46275
   C       16.33375        -3.29712        -0.16691
   S       15.28409        -2.30476         0.74440
   C       17.55875        -3.98303         0.00072
   C       17.84695        -4.66864        -1.19992
   C       16.77958        -4.41930        -2.15465
   C       16.66948        -4.92000        -3.41892
   C       17.63941        -5.79318        -3.95435
   N       18.42949        -6.51146        -4.37221
   C       15.57895        -4.60742        -4.25747
   N       14.69176        -4.34877        -4.93598
   C       19.02935        -5.39092        -1.13638
   C       19.65124        -5.27956         0.10330
   S       18.76599        -4.20539         1.18412
   C       20.85277        -5.88002         0.55902
   C       21.51841        -5.33409         1.67570
   C       22.78707        -5.81871         2.16294
   N       23.22430        -5.08136         3.19064
   S       22.15306        -3.93470         3.52135
   N       21.08709        -4.28406         2.37910
   C       23.45520        -6.89690         1.55163
   C       22.76425        -7.49547         0.45228
   C       23.16412        -8.62638        -0.22297
   S       22.02313        -9.13349        -1.37848
   C       20.97458        -7.85255        -1.00660
   C       21.47428        -7.02367        -0.01943
   C       24.73805        -7.34671         1.93107
   C       25.40716        -7.21312         3.11874
   C       26.88001        -7.39771         3.13582
   O       27.57216        -7.82726         2.24249
   C       27.31843        -6.90866         4.46694
   C       26.18412        -6.56092         5.22295
   C       26.33659        -6.01696         6.48699
   C       27.62060        -5.84717         7.00201
   C       28.74517        -6.21769         6.24679
   C       28.59358        -6.75373         4.96290
   C       30.06081        -6.09032         6.76035
   N       31.15541        -6.06677         7.09577
   C       27.84318        -5.20966         8.34285
   O       28.81729        -4.55597         8.58421
   O       26.88523        -5.39833         9.25873
   C       24.98329        -6.88452         4.45175
   C       23.73426        -7.06659         4.99470
   C       22.64600        -7.62148         4.29610
   N       21.73714        -8.08748         3.77092
   C       23.43604        -6.80122         6.34391
   N       23.16739        -6.58294         7.43932
   H        1.69619         3.44304         4.86696
   H       -1.36428         5.67685         2.90372
   H       -0.45486         5.01867         0.68993
   H        3.36529         2.22084         3.56208
   H        1.23382         3.81737        -0.65629
   H        5.53244         1.23301        -2.26081
   H        7.35374         1.60733         1.13355
   H       13.05106        -0.74352         1.53786
   H       14.05594        -3.01214        -2.62351
   H       19.45395        -5.92449        -1.96460
   H       24.05670        -9.20017        -0.08019
   H       20.02259        -7.81558        -1.49280
   H       25.32654        -7.81543         1.14858
   H       25.47524        -5.68380         7.04651
   H       29.45503        -7.03478         4.37636
   H       26.15598        -5.96118         8.96304
*
