# ORCA input file
# SCF done       -196.009927206743          0.000809429854
! CAM-B3LYP def2-SVP def2/J RIJCOSX Grid4 TightSCF
%maxcore 5000
%tddft
    Mode sTDDFT
    Ethresh 5.0
    maxcore 5000
end

%pal
  nprocs 6
  end
* xyz 0 1
   C       -0.82867         1.80696        -2.09126
   C       -1.31629         2.47183        -3.20655
   C       -2.62526         2.29192        -3.62670
   C       -3.48689         1.44426        -2.94535
   C       -3.01075         0.77287        -1.83231
   C       -1.67731         0.95355        -1.40315
   C       -1.44992         0.12182        -0.22955
   C       -0.31340         0.12316         0.53560
   C        0.80707         0.94784         0.28920
   N        1.75415         1.58323         0.16269
   C       -0.08042        -0.64729         1.69481
   N        0.19283        -1.23270         2.64519
   C       -2.65442        -0.69009        -0.04225
   C       -3.66978        -0.14829        -0.91558
   C       -5.02895        -0.31346        -0.80042
   C       -5.63815        -0.95236         0.29628
   N       -6.17258        -1.45230         1.18046
   C       -5.96865         0.22997        -1.70045
   N       -6.77442         0.62307        -2.41746
   C       -2.65261        -1.80640         0.76660
   C       -3.46358        -2.94960         0.81859
   C       -4.40725        -3.50931        -0.06502
   C       -4.79090        -4.76877         0.42794
   C       -4.06558        -5.02666         1.65420
   O       -4.07277        -5.96540         2.41942
   N       -3.28496        -3.87224         1.82961
   C       -2.46120        -3.70614         2.99707
   C       -5.69124        -5.35586        -0.47474
   N       -5.94230        -4.41571        -1.45548
   C       -5.13227        -3.29028        -1.29521
   O       -5.12531        -2.36196        -2.08824
   C       -7.11858        -4.32500        -2.28853
   C       -6.15240        -6.68183        -0.47216
   C       -6.42503        -7.41224        -1.61210
   C       -7.06950        -8.66721        -1.72895
   C       -7.22258        -9.09632        -3.01856
   C       -6.67145        -8.21838        -3.97458
   S       -5.89437        -6.87513        -3.19026
   C       -6.76974        -8.18974        -5.36102
   C       -7.52589        -8.98640        -6.24702
   C       -7.57666        -8.47685        -7.51335
   C       -6.87959        -7.25178        -7.66788
   S       -6.05186        -6.84798        -6.20426
   C       -6.82325        -6.45667        -8.80158
   C       -6.37504        -5.13570        -8.84912
   C       -6.21818        -4.15542        -7.83662
   C       -5.75007        -2.97735        -8.44367
   C       -5.62366        -3.19747        -9.87264
   O       -5.25483        -2.48471       -10.77624
   N       -6.03503        -4.52888       -10.03952
   C       -6.02461        -5.15672       -11.33203
   C       -5.72362        -1.94333        -7.50012
   N       -6.14694        -2.48839        -6.30796
   C       -6.50083        -3.83461        -6.45280
   O       -6.95186        -4.48939        -5.52672
   C       -6.06702        -1.89420        -5.00052
   C       -5.30599        -0.61969        -7.72290
   C       -5.68256         0.51280        -7.03600
   C       -4.89620         1.73116        -6.92791
   C       -3.66008         1.96216        -7.47662
   C       -2.92857         1.06119        -8.27892
   N       -2.24531         0.38055        -8.90178
   C       -2.91035         3.13734        -7.26244
   N       -2.24214         4.05917        -7.11244
   C       -5.59091         2.60866        -5.99366
   C       -6.76668         1.96292        -5.54820
   C       -7.57322         2.54220        -4.58406
   C       -7.21199         3.78339        -4.08071
   C       -6.08532         4.44246        -4.54950
   C       -5.26583         3.86644        -5.50983
   C       -6.91142         0.71869        -6.28679
   C       -8.08407         0.02582        -6.44717
   C       -9.27390         0.31906        -5.74667
   N      -10.27392         0.49054        -5.21070
   C       -8.30204        -0.98840        -7.40203
   N       -8.57454        -1.77045        -8.19786
   H        0.19212         1.95565        -1.78077
   H       -0.66812         3.13571        -3.75706
   H       -2.97879         2.82421        -4.49577
   H       -4.50108         1.31169        -3.28590
   H       -1.80745        -1.87066         1.43827
   H       -2.62838        -4.58257         3.62323
   H       -2.74258        -2.80821         3.54911
   H       -1.40112        -3.65261         2.73941
   H       -7.85573        -5.05366        -1.95940
   H       -6.89901        -4.48334        -3.34677
   H       -7.53166        -3.32040        -2.17661
   H       -6.20412        -7.17244         0.49012
   H       -7.44752        -9.18683        -0.86651
   H       -7.72952       -10.00190        -3.29968
   H       -8.03723        -9.87611        -5.92656
   H       -8.13649        -8.91269        -8.32175
   H       -7.16450        -6.90043        -9.72714
   H       -5.62401        -4.42431       -12.03315
   H       -7.03459        -5.43029       -11.64444
   H       -5.38827        -6.04375       -11.33190
   H       -5.39091        -1.04240        -5.01238
   H       -5.68009        -2.63104        -4.29713
   H       -7.04547        -1.57096        -4.63839
   H       -4.58035        -0.52010        -8.52022
   H       -8.44862         2.03850        -4.21116
   H       -7.82239         4.24304        -3.31891
   H       -5.83483         5.41806        -4.16137
   H       -4.40272         4.40293        -5.86922
*
