# ORCA input file
# SCF done       -222.375252414530          0.000747764196
! CAM-B3LYP def2-SVP def2/J RIJCOSX Grid4 TightSCF
%maxcore 5000
%tddft
    Mode sTDDFT
    Ethresh 5.0
    maxcore 5000
end

%pal
  nprocs 6
  end
* xyz 0 1
   C       -2.00347         5.62831        -1.13910
   C       -2.04189         5.98340        -2.46425
   C       -0.91422         6.39046        -3.20651
   N       -0.03723         6.73739        -3.86140
   C       -3.19282         5.97142        -3.27889
   N       -4.07809         5.96738        -4.01113
   C       -0.80077         5.56330        -0.31448
   C       -1.15623         5.07161         0.96563
   C       -0.24033         4.90040         1.97345
   C        1.09417         5.22623         1.70456
   C        1.43957         5.71709         0.42395
   C        0.51128         5.89260        -0.59560
   S        3.13813         6.06708         0.30960
   C        3.35770         5.55528         1.96134
   C        2.21980         5.14297         2.56895
  Br        5.06803         5.61465         2.72917
   C       -2.61311         4.84094         1.00767
   O       -3.26938         4.53480         1.98984
   C       -3.11583         5.18393        -0.32626
   C       -4.44180         5.23442        -0.69018
   C       -5.54614         4.65294        -0.06001
   S       -7.12981         5.25693        -0.53677
   C       -7.98941         4.11712         0.45426
   C       -7.07877         3.27221         1.10077
   C       -5.71971         3.58867         0.82502
   S       -4.63504         2.48620         1.57493
   C       -5.98872         1.61428         2.25627
   C       -5.75254         0.44082         3.09988
   O       -6.62787        -0.21802         3.60700
   O       -4.44255         0.20611         3.23384
   C       -4.06176        -0.92390         4.01753
   C       -4.10465        -2.20630         3.19915
   C       -7.20584         2.14568         1.94087
   C       -9.39282         4.10537         0.54773
   C      -10.18167         5.01197        -0.09484
   C      -11.59130         5.10014        -0.04914
   C      -12.24974         6.12804        -0.70012
   C      -13.62049         6.32503        -0.69940
   C      -14.52303         5.41501         0.00729
   C      -14.10620         4.33447         0.70528
   S      -12.46146         3.87687         0.86870
   C      -15.82684         5.93971        -0.20910
   C      -15.75723         7.10396        -0.98268
   C      -17.03984         7.64816        -1.22047
   C      -18.01687         6.90715        -0.63560
   S      -17.43405         5.52363         0.22430
   C      -14.37740         7.36459        -1.29975
   C      -13.80938         8.42156        -2.02757
   C      -14.43770         9.52318        -2.53323
   C      -13.74881        10.53931        -3.21554
   S      -12.03747        10.47204        -3.55647
   C      -12.00850        12.04354        -4.32694
   C      -13.30310        12.59269        -4.32345
   C      -14.25102        11.74270        -3.70009
   S      -15.83588        12.43544        -3.64057
   C      -15.23032        13.85729        -4.44364
   C      -16.15099        14.97721        -4.68103
   O      -17.29921        14.99040        -4.31093
   O      -15.54219        15.95597        -5.35564
   C      -16.27519        17.16293        -5.58939
   C      -15.75063        18.28206        -4.70304
   C      -13.90136        13.80049        -4.74555
   C      -10.77721        12.55105        -4.75448
   C      -10.57968        13.77026        -5.34690
   C       -9.30965        14.26749        -5.66184
   C       -9.01759        15.53050        -6.11511
   C       -9.82824        16.71718        -6.20337
   C      -10.90421        17.04986        -5.41252
   C      -11.69034        18.20456        -5.58218
   N      -12.40944        19.09551        -5.68232
   C      -11.31570        16.33095        -4.27225
   N      -11.67597        15.82882        -3.30377
   C       -9.17452        17.62269        -7.14597
   C       -7.89663        17.09843        -7.46500
   C       -7.72279        15.79699        -6.78363
   O       -6.74818        15.07831        -6.80038
   C       -7.01822        17.75058        -8.29397
   C       -7.42281        18.97326        -8.84217
   C       -8.70392        19.48252        -8.52568
   C       -9.59053        18.82670        -7.67932
   S       -9.00096        21.00138        -9.31618
   C       -7.41963        20.93407       -10.04798
   C       -6.70544        19.83163        -9.72003
  Br       -6.86271        22.32542       -11.17617
   H       -0.54204         4.52751         2.93957
   H        0.82353         6.27641        -1.55233
   H        2.17404         4.79639         3.58520
   H       -4.69187         5.81287        -1.57110
   H       -4.73542        -1.00074         4.87742
   H       -3.04715        -0.70408         4.35538
   H       -5.12507        -2.41204         2.88498
   H       -3.74878        -3.03560         3.80348
   H       -3.47471        -2.11125         2.31788
   H       -8.13285         1.73286         2.29382
   H       -9.83257         3.34228         1.17492
   H       -9.69006         5.76510        -0.69896
   H      -11.62427         6.82809        -1.23706
   H      -14.78843         3.67782         1.22161
   H      -17.24860         8.53276        -1.79282
   H      -19.07391         7.08735        -0.65354
   H      -12.73879         8.36641        -2.18508
   H      -15.49751         9.67853        -2.40181
   H      -17.33514        16.97137        -5.39405
   H      -16.12983        17.40309        -6.64584
   H      -15.85707        18.01239        -3.65493
   H      -16.31832        19.18808        -4.89359
   H      -14.70087        18.47429        -4.91222
   H      -13.40946        14.61802        -5.23369
   H       -9.91100        11.93560        -4.54495
   H      -11.43611        14.37604        -5.58817
   H       -8.46727        13.58628        -5.60975
   H       -6.04793        17.33325        -8.51280
   H      -10.55773        19.25256        -7.46842
   H       -5.71355        19.62951       -10.08100
*
