# ORCA input file
# SCF done       -176.049500513794          0.000495718721
! CAM-B3LYP def2-SVP def2/J RIJCOSX Grid4 TightSCF
%maxcore 5000
%tddft
    Mode sTDDFT
    Ethresh 5.0
    maxcore 5000
end

%pal
  nprocs 6
  end
* xyz 0 1
   C       -0.61454        -0.42539        -1.70944
   C       -0.99689        -0.54163        -0.39849
   C       -0.51344         0.28361         0.63966
   N       -0.15692         0.92476         1.52144
   C       -1.99028        -1.42940         0.05904
   N       -2.81256        -2.11297         0.47732
   C        0.21487         0.65620        -2.23981
   C       -0.00177         0.75888        -3.62615
   C        0.62067         1.72832        -4.38592
   C        1.48922         2.60719        -3.75009
   C        1.72419         2.49854        -2.37407
   C        1.08731         1.52649        -1.60954
  Cl        2.81519         3.57843        -1.60770
  Cl        2.28038         3.82844        -4.66039
   C       -0.93171        -0.30519        -4.05903
   O       -1.38376        -0.49828        -5.16295
   C       -1.15880        -1.13820        -2.84560
   C       -1.73040        -2.36787        -2.99668
   C       -1.71713        -3.46495        -2.11279
   C       -0.86369        -3.71936        -1.04701
   C       -1.15403        -4.91893        -0.41506
   C       -2.24019        -5.60404        -1.00321
   S       -2.87345        -4.77503        -2.34720
   C       -2.47771        -6.78219        -0.25949
   C       -1.55212        -6.84348         0.80223
   C       -0.68148        -5.67991         0.72591
   C        0.36212        -5.36095         1.54476
   C        0.76611        -6.20717         2.59602
   N        1.10185        -6.91475         3.43337
   C        1.10461        -4.17493         1.36583
   N        1.69875        -3.20712         1.20757
   C       -1.73919        -7.95412         1.61803
   C       -2.78533        -8.75600         1.18238
   S       -3.55291        -8.10883        -0.26228
   C       -3.21696        -9.95544         1.79475
   C       -4.14614       -10.78968         1.26252
   C       -4.60420       -12.00825         1.84122
   C       -4.33387       -12.39796         3.13635
   C       -4.73531       -13.59579         3.71497
   C       -5.56460       -14.54565         2.96350
   C       -5.96925       -14.36131         1.68467
   S       -5.55880       -12.99115         0.74727
   C       -5.83618       -15.61635         3.85781
   C       -5.22858       -15.36395         5.08722
   C       -5.46293       -16.39841         6.01892
   C       -6.22749       -17.38596         5.48318
   S       -6.69075       -17.10674         3.83855
   C       -4.52167       -14.10907         5.02229
   C       -3.80210       -13.59246         6.11320
   C       -2.98291       -12.49452         6.13663
   C       -2.37318       -12.03719         7.31067
   C       -1.61563       -10.89003         7.39054
   C       -0.96490       -10.37229         8.57354
   C       -0.91324       -10.95169         9.81666
   C       -0.25300       -10.38663        10.92777
   N        0.26121        -9.98867        11.87394
   C       -1.49524       -12.18453        10.17614
   N       -1.93453       -13.17737        10.55240
   C       -0.34373        -9.09891         8.21312
   C       -0.58374        -8.84630         6.85091
   C       -1.38099        -9.95009         6.27672
   O       -1.76863       -10.02885         5.12311
   C       -0.11879        -7.70461         6.23247
   C        0.60014        -6.78744         6.98921
   C        0.84635        -7.03307         8.34356
   C        0.37981        -8.18781         8.96347
  Cl        1.73885        -5.89524         9.26893
  Cl        1.18068        -5.34791         6.25596
   H        0.43574         1.80063        -5.44596
   H        1.29540         1.46440        -0.55375
   H       -2.20217        -2.53270        -3.96074
   H       -0.04761        -3.07125        -0.78439
   H       -1.15799        -8.19905         2.48839
   H       -2.72911       -10.17989         2.73331
   H       -4.56322       -10.54460         0.29271
   H       -3.78758       -11.68619         3.73184
   H       -6.58335       -15.08026         1.16555
   H       -5.09227       -16.41915         7.02742
   H       -6.56062       -18.28817         5.95777
   H       -3.91754       -14.14251         7.04088
   H       -2.77165       -11.94170         5.23971
   H       -2.53428       -12.61675         8.21001
   H       -0.29027        -7.52862         5.18270
   H        0.58997        -8.34183        10.00893
*
