# ORCA input file
# SCF done       -172.069252920485          0.002485914716
! CAM-B3LYP def2-SVP def2/J RIJCOSX Grid4 TightSCF
%maxcore 5000
%tddft
    Mode sTDDFT
    Ethresh 5.0
    maxcore 5000
end

%pal
  nprocs 6
  end
* xyz 0 1
   C       -2.86910        -1.91229         3.00309
   C       -3.48685        -1.08873         3.89469
   C       -3.37915         0.25968         3.50519
   C       -2.67073         0.41438         2.30840
   S       -2.14291        -1.07838         1.67025
   C       -2.61053         1.80248         1.99281
   C       -3.28002         2.51593         2.99666
   C       -3.79152         1.56944         3.97884
   C       -4.51728         1.85977         5.09696
   C       -4.86481         3.18224         5.44736
   N       -5.15522         4.25281         5.73828
   C       -4.97763         0.85565         5.97450
   N       -5.35812         0.04278         6.68807
   C       -3.27778         3.89447         2.77963
   C       -2.61417         4.23557         1.61778
   S       -1.98341         2.82116         0.78085
   C       -2.42198         5.54464         1.07207
   C       -1.78331         5.75635        -0.13889
   C       -1.61498         7.02862        -0.68090
   F       -0.91814         7.09672        -1.83483
   C       -2.07022         8.19721        -0.09116
   C       -2.67982         8.01431         1.17676
   C       -2.86904         6.71101         1.75336
   N       -3.47006         6.78634         2.93928
   S       -3.76426         8.32287         3.29358
   N       -3.15323         8.98080         1.96132
   C       -1.92943         9.52102        -0.64458
   S       -1.61944        10.84197         0.42784
   C       -1.58158        11.98128        -0.89604
   C       -1.82073        11.33585        -2.10109
   C       -2.03444         9.94996        -1.95127
   C       -2.45258         9.08104        -3.09591
   C       -3.12705         9.93701        -4.17469
   C       -3.47954         9.10804        -5.30521
   N       -3.73459         8.43227        -6.18959
   C       -2.13950        11.04249        -4.59595
   C       -2.65256        11.77884        -5.72998
   N       -3.07680        12.37673        -6.60580
   C       -1.89820        12.01903        -3.43244
   C       -1.34195        13.35959        -0.58744
   C       -1.29066        13.79481         0.71829
   C       -1.03346        15.09865         1.13069
   C       -0.76124        16.16458         0.16439
   C       -0.78188        15.98189        -1.17372
   S       -1.11066        14.47653        -1.92441
   C       -0.51820        17.32750         0.94239
   C       -0.64204        17.03082         2.30222
   C       -0.39447        18.16702         3.10605
   C       -0.10263        19.26083         2.35235
   S       -0.11118        18.97041         0.64800
   C       -0.97832        15.63078         2.43830
   C       -1.24230        14.90551         3.61430
   C       -1.27163        15.42480         4.87845
   C       -1.59285        14.64335         5.99681
   C       -1.69608        15.06438         7.30429
   C       -1.44500        16.43530         7.72795
   O       -1.07592        17.33596         6.99355
   N       -1.65430        16.68913         9.07680
   C       -2.07318        15.77449        10.02146
   O       -2.25013        16.10040        11.17368
   N       -2.27003        14.48350         9.58169
   C       -2.09603        14.04946         8.27854
   O       -2.28743        12.88140         7.99870
   C       -2.70042        13.48949        10.55045
   C       -1.43541        18.03794         9.57229
   H       -2.79125        -2.98018         3.04158
   H       -3.98988        -1.43555         4.77927
   H       -3.72676         4.63280         3.41854
   H       -1.38653         4.92189        -0.69675
   H       -3.13891         8.30595        -2.74480
   H       -1.58555         8.57611        -3.53286
   H       -4.04350        10.39458        -3.78065
   H       -1.19538        10.56970        -4.89437
   H       -2.70604        12.75977        -3.40839
   H       -0.97002        12.56278        -3.62732
   H       -1.46592        13.04783         1.48002
   H       -0.59700        16.77632        -1.87822
   H       -0.42185        18.20006         4.17926
   H        0.12585        20.25058         2.69763
   H       -1.46237        13.85130         3.49421
   H       -1.06655        16.46755         5.04307
   H       -1.80630        13.59083         5.83678
   H       -2.75918        13.96910        11.52399
   H       -1.98430        12.66811        10.56939
   H       -3.67487        13.09572        10.26076
   H       -1.12868        18.65390         8.73070
   H       -0.66052        18.02774        10.33849
   H       -2.35553        18.42216        10.01129
*
