# ORCA input file
# SCF done       -218.576929665139          0.000638244884
! CAM-B3LYP def2-SVP def2/J RIJCOSX Grid4 TightSCF
%maxcore 5000
%tddft
    Mode sTDDFT
    Ethresh 5.0
    maxcore 5000
end

%pal
  nprocs 6
  end
* xyz 0 1
   C        1.31595        -2.29806         2.55333
   C        0.86757        -1.93256         1.32252
   C        0.60541        -0.54929         1.25899
   C        0.87665         0.10227         2.47435
   S        1.44188        -0.97665         3.67255
   C        0.60038         1.48448         2.32085
   C        0.13845         1.69697         1.01183
   C        0.16342         0.42853         0.29485
   C       -0.09226         0.25401        -1.04128
   C       -0.37880         1.35605        -1.86537
   N       -0.57324         2.28424        -2.51435
   C       -0.03217        -1.00602        -1.66495
   N        0.00775        -2.03367        -2.17456
   C       -0.19856         3.02159         0.75639
   C        0.03660         3.84262         1.84567
   S        0.65233         2.93271         3.22495
   C       -0.09291         5.26284         1.94133
   C       -0.23016         5.80094         3.30866
   C       -1.22764         5.34055         4.16968
   C       -1.34786         5.81326         5.47037
   C       -0.45476         6.77047         5.94304
   C        0.55168         7.24271         5.10570
   C        0.65769         6.75521         3.80964
   F        1.64012         7.21906         3.03140
   F        1.41106         8.16254         5.55002
   F       -0.56545         7.23601         7.18713
   F       -2.32085         5.36202         6.26367
   F       -2.11616         4.44614         3.72875
   C       -0.01530         6.11378         0.86140
   C        0.40149         5.62292        -0.46900
   C       -0.39951         5.84803        -1.58948
   C       -0.05508         5.38350        -2.85345
   C        1.13885         4.69077        -3.02627
   C        1.97008         4.47761        -1.92934
   C        1.60063         4.93887        -0.67346
   F        2.41701         4.71481         0.36188
   F        3.12510         3.82488        -2.09024
   F        1.49741         4.23664        -4.22401
   F       -0.87093         5.59952        -3.88246
   F       -1.55676         6.50400        -1.44368
   C       -0.29874         7.52443         0.92776
   C        0.44216         8.42809         0.20064
   C        0.33292         9.81006         0.29602
   C       -0.57824        10.42974         1.26407
   C       -1.46339         9.74377         2.01708
   S       -1.62392         8.03171         1.97130
   C       -0.26755        11.81913         1.24306
   C        0.77408        12.05569         0.34845
   C        1.13085        13.42038         0.29415
   C        0.36812        14.16812         1.13451
   S       -0.80724        13.25375         2.01803
   C        1.14458        10.81518        -0.28710
   C        2.14101        10.69216        -1.26436
   C        2.24608         9.67932        -2.19158
   C        3.31643         9.53552        -3.06732
   C        3.35120         8.62935        -4.11278
   C        4.42277         8.36566        -4.98486
   C        4.13686         7.45734        -5.96948
   C        2.81668         6.98065        -5.93665
   S        1.95876         7.66631        -4.57517
   C        2.17714         6.15014        -6.84936
   C        2.73164         5.48997        -7.96163
   C        1.81452         4.79547        -8.69698
   C        0.49006         4.87922        -8.20726
   S        0.46042         5.85805        -6.76004
   C       -0.61223         4.30813        -8.80624
   C       -1.96136         4.35831        -8.41734
   C       -2.94262         3.79049        -9.22227
   C       -4.30338         3.80219        -8.96085
   C       -4.82366         4.34375        -7.69361
   C       -4.05276         4.94425        -6.76065
   S       -2.36184         5.16788        -6.90467
   C       -6.21807         4.08781        -7.71755
   C       -6.55449         3.44344        -8.91504
   C       -7.94190         3.17654        -9.00151
   C       -8.60291         3.60849        -7.89872
   S       -7.58310         4.35933        -6.71097
   C       -5.37923         3.27890        -9.70923
   C       -5.39444         2.69680       -11.02155
   C       -4.52329         2.91634       -12.00748
   H        1.58901        -3.27793         2.89038
   H        0.73020        -2.61954         0.50739
   H       -0.63880         3.36884        -0.15886
   H        1.24016         8.02119        -0.40462
   H       -2.13622        10.22080         2.71150
   H        1.90543        13.83122        -0.32755
   H        0.41699        15.22664         1.29982
   H        2.86026        11.50042        -1.31903
   H        1.43067         8.97470        -2.29386
   H        4.18808        10.16286        -2.93307
   H        5.37544         8.85143        -4.86745
   H        4.83632         7.14577        -6.72411
   H        3.78114         5.53453        -8.19043
   H        2.05044         4.22825        -9.58016
   H       -0.41238         3.76095        -9.71965
   H       -2.59788         3.29220       -10.11727
   H       -4.45694         5.34337        -5.84349
   H       -8.42512         2.69324        -9.83130
   H       -9.65316         3.53870        -7.69204
   H       -6.24314         2.05006       -11.21239
   H       -3.70303         3.60591       -11.91310
   H       -4.63254         2.43354       -12.96328
*
