# ORCA input file
# SCF done       -229.822765434580          0.000487622413
! CAM-B3LYP def2-SVP def2/J RIJCOSX Grid4 TightSCF
%maxcore 5000
%tddft
    Mode sTDDFT
    Ethresh 5.0
    maxcore 5000
end

%pal
  nprocs 6
  end
* xyz 0 1
   C        2.20438         1.57364         0.50498
   C        2.42466         2.31268         1.63317
   F        3.18470         3.41316         1.57893
   C        1.85716         1.92825         2.86543
   F        2.09125         2.67187         3.95368
   C        1.07698         0.80934         2.95217
   C        0.83149         0.02663         1.80716
   C        1.40365         0.41485         0.56048
   C        1.16793        -0.35168        -0.60319
   C        0.38310        -1.47262        -0.52309
   C       -0.17554        -1.85654         0.72655
   C        0.03248        -1.13620         1.86780
   C       -0.95972        -3.09409         0.56145
   O       -1.56478        -3.67319         1.43621
   C       -0.80774        -3.47727        -0.86638
   C       -0.04092        -2.43489        -1.53440
   C        0.18732        -2.31309        -2.87986
   C       -0.29841        -3.17591        -3.88622
   N       -0.66645        -3.81563        -4.76616
   C        0.92595        -1.25943        -3.46164
   N        1.51713        -0.43550        -3.99866
   C       -1.19122        -4.64040        -1.47289
   C       -1.98408        -5.71538        -1.01796
   C       -2.76198        -5.90460         0.11899
   C       -3.42572        -7.12360         0.09885
   C       -3.15217        -7.88643        -1.06147
   S       -2.09232        -7.09262        -2.12298
   C       -3.87264        -9.10328        -0.99086
   C       -4.61511        -9.10048         0.21053
   C       -4.35407        -7.86808         0.93636
   C       -4.87429        -7.51735         2.14716
   C       -5.76512        -8.37062         2.83449
   N       -6.49079        -9.07599         3.37416
   C       -4.58682        -6.29293         2.79006
   N       -4.38475        -5.29987         3.32420
   C       -5.37542       -10.24964         0.37345
   C       -5.20213       -11.13873        -0.67820
   S       -4.11522       -10.51818        -1.91058
   C       -5.80427       -12.39939        -0.90163
   N       -5.78769       -12.93257        -2.11504
   C       -6.51495       -14.06316        -2.03299
   C       -7.03487       -14.26276        -0.67292
   C       -7.82568       -15.50180        -0.59743
   O       -8.42176       -15.95779         0.35502
   C       -7.71909       -16.03336        -1.96794
   C       -6.91804       -15.12097        -2.81250
   N       -6.79706       -15.61389        -4.06800
   C       -7.44899       -16.75127        -4.05402
   C       -8.04121       -17.07887        -2.77193
   C       -6.54542       -13.22656         0.08351
   C       -6.61958       -12.98264         1.48098
   C       -7.49621       -13.59611         2.31344
   C       -7.57539       -13.31051         3.70066
   C       -6.83577       -12.40177         4.44744
   C       -7.21515       -12.39224         5.78345
   C       -8.26311       -13.29303         6.06450
   S       -8.76349       -14.15300         4.67991
   C       -8.58297       -13.19348         7.43984
   C       -7.73076       -12.23419         8.02947
   C       -6.84846       -11.69811         7.00692
   C       -5.89154       -10.73932         7.16820
   C       -5.66464       -10.13917         8.42543
   N       -5.48927        -9.67048         9.45706
   C       -5.05888       -10.30854         6.11450
   N       -4.35992        -9.97504         5.26848
   C       -7.97910       -12.04937         9.38189
   C       -9.02019       -12.84730         9.84000
   S       -9.66940       -13.86852         8.55877
   C       -9.55357       -12.97431        11.13810
   C       -9.41294       -12.16128        12.22398
   C       -9.71232       -12.73133        13.56885
   O      -10.27673       -13.77553        13.79838
   C       -9.12524       -11.78186        14.53343
   C       -9.01626       -11.89364        15.88950
   C       -8.37175       -10.86525        16.61274
   C       -7.84315        -9.74239        15.91167
   C       -7.18986        -8.72687        16.63843
   C       -7.07143        -8.81932        17.99685
   C       -7.59772        -9.92850        18.68933
   C       -8.23447       -10.93095        18.01301
   F       -7.46661        -9.99283        20.02104
   F       -6.45136        -7.85311        18.68618
   C       -7.97958        -9.64988        14.50728
   C       -8.62129       -10.65130        13.82956
   C       -8.93671       -10.80820        12.41030
   C       -9.01093        -9.77585        11.51113
   C       -9.55370        -9.90192        10.21819
   N      -10.01129        -9.96478         9.16703
   C       -8.64675        -8.44631        11.81229
   N       -8.36937        -7.35082        12.00989
   H        2.64475         1.88287        -0.43010
   H        0.64990         0.52837         3.90205
   H        1.61957        -0.03275        -1.52832
   H       -0.40827        -1.45109         2.80139
   H       -0.82906        -4.78970        -2.48368
   H       -2.81829        -5.17665         0.90886
   H       -6.06083       -10.40794         1.18372
   H       -7.51213       -17.35169        -4.94482
   H       -8.60549       -17.96371        -2.55328
   H       -5.91183       -12.27838         1.88966
   H       -8.18775       -14.32862         1.91895
   H       -6.07284       -11.76817         4.03531
   H       -7.40751       -11.40544        10.02486
   H      -10.10716       -13.88833        11.33437
   H       -9.41444       -12.75530        16.40327
   H       -6.78469        -7.86932        16.12442
   H       -8.63127       -11.77362        18.55724
   H       -7.56219        -8.79444        14.00061
*
