# ORCA input file
# SCF done       -152.836342626727          0.000813682248
! CAM-B3LYP def2-SVP def2/J RIJCOSX Grid4 TightSCF
%maxcore 5000
%tddft
    Mode sTDDFT
    Ethresh 5.0
    maxcore 5000
end

%pal
  nprocs 6
  end
* xyz 0 1
   C       -0.11970         0.26416        -6.79905
   C       -0.95537         1.30501        -7.06037
   C       -1.03818         2.18603        -5.96348
   C       -0.24437         1.77382        -4.88487
   S        0.59125         0.32311        -5.21599
   C       -0.38390         2.71550        -3.82764
   C       -1.27145         3.71651        -4.24429
   C       -1.70900         3.41794        -5.60494
   C       -2.56465         4.15673        -6.37012
   C       -3.15318         5.35130        -5.90644
   N       -3.63854         6.32515        -5.54309
   C       -2.91748         3.77765        -7.68170
   N       -3.20808         3.47656        -8.74970
   C       -1.48308         4.69239        -3.27516
   C       -0.76362         4.44259        -2.11580
   S        0.19363         2.97863        -2.23846
   C       -0.78309         5.25726        -0.95713
   C       -0.13848         5.11457         0.26255
   C       -0.40947         6.17223         1.15748
   S        0.23333         6.34248         2.78416
   C        1.61700         5.15129         2.75686
   C        1.14485         3.78135         2.33552
   S        0.88952         3.71472         0.53369
   C       -1.28582         7.12357         0.63848
   S       -1.75443         6.70189        -0.98366
   C       -1.78899         8.29627         1.25322
   C       -2.63925         9.26524         0.72348
   C       -2.95665        10.28937         1.63944
   S       -4.00444        11.66864         1.34812
   C       -4.86127        11.19111        -0.18877
   C       -3.86916        10.79658        -1.25308
   S       -3.20985         9.12748        -0.93199
   C       -2.33611        10.13277         2.87766
   S       -1.37021         8.68571         2.89619
   C       -2.40725        10.96764         4.01980
   C       -1.80236        10.79805         5.26385
   C       -2.08295        11.84386         6.16957
   S       -1.50268        12.02062         7.81941
   C       -0.17419        10.77683         7.88632
   C       -0.67318         9.43713         7.40334
   S       -0.78797         9.39858         5.58147
   C       -2.92442        12.81021         5.63872
   S       -3.34725        12.43232         3.99253
   C       -3.45640        13.99017         6.21436
   C       -4.27818        14.89588         5.55967
   C       -4.63905        15.96279         6.37720
   C       -4.09444        15.87303         7.66510
   S       -3.13683        14.47014         7.87035
   C       -4.52006        17.00724         8.41078
   C       -5.33352        17.80409         7.59434
   C       -5.43929        17.18123         6.29156
   C       -6.13699        17.62826         5.20676
   C       -6.87929        18.82700         5.23361
   N       -7.48908        19.79832         5.24801
   C       -6.16511        16.92598         3.98441
   N       -6.19828        16.36473         2.98440
   C       -5.80316        18.95359         8.26098
   C       -5.34664        19.00642         9.54114
   S       -4.33482        17.66364         9.97507
   H        0.13445        -0.55417        -7.44227
   H       -1.48158         1.43023        -7.98904
   H       -2.12284         5.54995        -3.38168
   H        1.98325         5.14618         3.78332
   H        2.39594         5.52704         2.09322
   H        0.21528         3.50921         2.83589
   H        1.90130         3.02119         2.53102
   H       -5.41637        12.08577        -0.47051
   H       -5.55787        10.38141         0.02875
   H       -3.04014        11.50205        -1.30945
   H       -4.34374        10.71020        -2.23041
   H        0.11118        10.74091         8.93779
   H        0.66925        11.12603         7.29033
   H       -1.64936         9.19825         7.82563
   H        0.03241         8.64156         7.64198
   H       -4.58335        14.76127         4.53750
   H       -6.44106        19.69946         7.82312
   H       -5.53879        19.75968        10.27849
*
