# ORCA input file
# SCF done       -191.597100995312          0.000591962613
! CAM-B3LYP def2-SVP def2/J RIJCOSX Grid4 TightSCF
%maxcore 5000
%tddft
    Mode sTDDFT
    Ethresh 5.0
    maxcore 5000
end

%pal
  nprocs 6
  end
* xyz 0 1
   C        2.91080         5.32699         4.03310
   C        1.74982         4.82778         4.56742
   C        1.32024         5.07309         5.88511
   N        0.90598         5.26737         6.93840
   C        0.89675         3.95259         3.86551
   N        0.20698         3.20222         3.33564
   C        3.98268         5.97242         4.78053
   C        5.18429         5.87546         4.01816
   C        6.37004         6.36048         4.48775
   C        6.40623         6.98448         5.75571
   C        5.20584         7.09691         6.51506
   C        3.99249         6.57732         6.00776
   C        5.25610         7.72781         7.77447
   C        6.43447         8.22187         8.26401
   C        7.61597         8.10958         7.51639
   C        7.60197         7.50371         6.28932
   C        4.89391         5.21845         2.72926
   O        5.67032         4.91670         1.85094
   C        3.41553         5.05794         2.70454
   C        2.77006         4.81017         1.53272
   C        1.40819         5.03896         1.22679
   S        0.47395         6.26020         2.04469
   C       -0.93775         5.89275         1.10016
   C       -0.67815         4.86475         0.20214
   C        0.64750         4.40763         0.25482
   C        1.16380         3.28373        -0.58198
   C        0.20334         2.94709        -1.71924
   C       -1.24287         2.87932        -1.20758
   C       -1.32751         1.84815        -0.10479
   O       -1.52919         0.68168        -0.29119
   C       -1.68704         4.25921        -0.72091
   C       -2.14149         6.63090         1.29149
   S       -3.36475         6.65237         0.04916
   C       -4.38129         7.69602         0.99279
   C       -3.79390         8.00932         2.19576
   C       -2.52191         7.41857         2.36586
   C       -1.67353         7.67544         3.56840
   C       -2.41588         8.43849         4.66507
   C       -3.27509         9.55179         4.06667
   C       -2.46778        10.54492         3.26933
   O       -1.27679        10.66588         3.29461
   C       -4.38472         8.93307         3.21337
   C       -5.62304         8.13965         0.41169
   S       -5.58158         8.87497        -1.15795
   C       -7.32472         8.98188        -1.20401
   C       -7.87806         8.50328        -0.02560
   C       -6.91309         8.02563         0.88536
   C       -7.26960         7.43202         2.21084
   C       -8.77395         7.20454         2.34598
   C       -9.54231         8.41714         1.81928
   C       -9.16681         9.70297         2.50982
   O       -8.50615         9.80970         3.50380
   C       -9.32978         8.53244         0.30805
   C       -7.90193         9.61460        -2.33096
   C       -9.08174         9.32561        -2.95408
   C       -9.67316        10.11387        -4.02096
   C       -9.41340        11.43421        -4.27745
   C      -10.02789        12.17210        -5.30994
   N      -10.49241        12.81701        -6.13821
   C       -8.54408        12.23527        -3.50754
   N       -7.88142        12.94675        -2.89666
   C      -10.66621         9.28587        -4.68970
   C      -10.75471         8.04402        -3.99775
   C       -9.79386         8.03083        -2.88085
   O       -9.57460         7.10386        -2.12558
   C      -11.60792         7.05696        -4.39817
   C      -12.42644         7.27101        -5.53025
   C      -12.33938         8.50887        -6.23043
   C      -11.44650         9.51356        -5.79178
   C      -13.15398         8.70686        -7.36356
   C      -14.01469         7.73059        -7.78629
   C      -14.10008         6.51253        -7.09597
   C      -13.32357         6.28807        -5.99140
   H        7.27157         6.27063         3.90008
   H        3.09457         6.68110         6.59721
   H        4.34410         7.80974         8.34742
   H        6.46270         8.70196         9.23074
   H        8.53708         8.50563         7.91712
   H        8.50867         7.41469         5.70887
   H        3.39727         4.46473         0.71629
   H        1.30266         2.40735         0.05865
   H        2.14532         3.54385        -0.98711
   H        0.48241         1.99172        -2.16497
   H        0.26074         3.71567        -2.49334
   H       -1.88785         2.54982        -2.02827
   H       -1.17340         2.25191         0.91299
   H       -2.65249         4.17566        -0.21575
   H       -1.83044         4.91585        -1.58514
   H       -0.80607         8.26538         3.25634
   H       -1.29515         6.73107         3.97022
   H       -1.68502         8.86055         5.35482
   H       -3.05996         7.75827         5.22503
   H       -3.74224        10.13410         4.87159
   H       -3.09654        11.20534         2.63800
   H       -4.98016         9.70442         2.71950
   H       -5.05022         8.37081         3.87448
   H       -6.95659         8.11784         2.99992
   H       -6.72542         6.49572         2.35333
   H       -9.01603         7.03387         3.39549
   H       -9.07605         6.32547         1.77458
   H      -10.61617         8.28778         2.00626
   H       -9.58475        10.59852         2.00626
   H       -9.79136         9.43774        -0.09615
   H       -9.80810         7.67900        -0.18494
   H       -7.28056        10.38501        -2.77527
   H      -11.65655         6.12166        -3.86036
   H      -11.39416        10.43705        -6.34669
   H      -13.08468         9.64669        -7.89139
   H      -14.63399         7.89163        -8.65582
   H      -14.78341         5.75245        -7.44393
   H      -13.38470         5.35155        -5.45644
*
