# ORCA input file
# SCF done       -213.493588301131          0.000836300261
! CAM-B3LYP def2-SVP def2/J RIJCOSX Grid4 TightSCF
%maxcore 5000
%tddft
    Mode sTDDFT
    Ethresh 5.0
    maxcore 5000
end

%pal
  nprocs 6
  end
* xyz 0 1
   C        1.49815         0.38891         0.21854
   C        1.89680         1.70941         0.42538
   C        1.01122         2.75842        -0.19770
   O       -0.13414         2.51362        -0.45259
   O        1.53575         3.95310        -0.47493
   C        3.02786         1.98705         1.21426
   C        3.48773         3.30223         1.45997
   N        3.90981         4.34882         1.66930
   C        3.74875         0.94808         1.81694
   C        3.33860        -0.34800         1.60057
   C        2.22504        -0.64149         0.78843
   C        2.07110        -2.09261         0.70753
   C        1.41841        -2.76647        -0.28363
   C        0.64733        -2.13987        -1.28677
   N        0.00998        -1.68742        -2.12608
   C        1.55035        -4.15487        -0.51842
   N        1.70542        -5.24185        -0.85358
   C        2.96213        -2.66622         1.69834
   C        3.90463        -1.60676         2.14464
   O        4.88470        -1.73764         2.83735
   C        2.94976        -3.88746         2.29584
   C        1.90101        -4.83701         2.23151
   C        1.96046        -6.20439         2.55596
   C        0.66666        -6.74917         2.33232
   C       -0.09238        -5.63603         1.82808
   N        0.64356        -4.52321         1.81755
   O       -1.30804        -5.54320         1.33077
   C       -1.96133        -6.68604         0.82285
   C        0.78243        -8.12309         2.66954
   N        2.08466        -8.42776         2.96893
   C        2.79139        -7.30264         2.92120
   O        4.07369        -7.22561         3.18812
   C        4.72655        -8.44731         3.49531
   C       -0.15654        -9.17944         2.84103
   C        0.29300       -10.48724         2.78385
   C       -0.50031       -11.60727         2.95996
   C       -1.89319       -11.47743         3.40260
   C       -2.53188       -10.29262         3.54776
   S       -1.80852        -8.77065         3.23917
   C       -2.34882       -12.80449         3.63200
   C       -1.32367       -13.70905         3.34217
   C       -1.72241       -15.04876         3.53950
   C       -3.00916       -15.12463         3.96911
   S       -3.78733       -13.58696         4.14598
   C       -0.16774       -12.98808         2.88176
   C        0.99334       -13.62049         2.40900
   C        1.98033       -13.05661         1.64327
   C        3.08387       -13.77585         1.16836
   C        3.47435       -15.12663         1.38032
   C        4.63204       -15.33884         0.60333
   C        4.89375       -14.06777        -0.01149
   N        3.98251       -13.16964         0.32745
   O        5.91367       -13.81581        -0.80886
   C        5.99247       -12.50385        -1.35155
   C        5.02806       -16.68466         0.82772
   N        4.17168       -17.26121         1.72678
   C        3.23899       -16.37127         2.03837
   O        2.23568       -16.62524         2.86177
   C        2.21030       -17.93555         3.40763
   C        6.13956       -17.41963         0.37834
   C        6.96524       -17.19902        -0.69146
   C        8.32819       -17.79090        -0.69458
   O        8.76834       -18.62534         0.05904
   C        9.04687       -17.09629        -1.79293
   C        8.15085       -16.24970        -2.47051
   C        8.59305       -15.49633        -3.54560
   C        9.92860       -15.58335        -3.93556
   C       10.81264       -16.43542        -3.25193
   C       10.36797       -17.19977        -2.16773
   C       12.18353       -16.53616        -3.60327
   N       13.30923       -16.67830        -3.76013
   C       10.46594       -14.82860        -5.11683
   O       11.44158       -15.19109        -5.70991
   O        9.80549       -13.72296        -5.48180
   C        6.82395       -16.38232        -1.86637
   C        5.65052       -15.95885        -2.43912
   C        4.36553       -16.34765        -2.00812
   N        3.28820       -16.66006        -1.76562
   C        5.59123       -15.10489        -3.55533
   N        5.50630       -14.34906        -4.41668
   H        0.61342         0.21260        -0.37358
   H        2.45233         4.08445        -0.19051
   H        4.60505         1.16176         2.43886
   H        3.79448        -4.13821         2.92744
   H       -1.27119        -7.52039         0.68819
   H       -2.37735        -6.40061        -0.14502
   H       -2.77761        -6.97283         1.48994
   H        4.24834        -8.92813         4.35088
   H        5.75785        -8.18980         3.72560
   H        4.68243        -9.12639         2.64156
   H        1.34972       -10.59061         2.59130
   H       -3.55998       -10.22437         3.86636
   H       -1.09661       -15.90618         3.37350
   H       -3.57355       -16.00696         4.19975
   H        1.07434       -14.67834         2.62365
   H        1.91981       -12.03412         1.30470
   H        7.04661       -12.30925        -1.54204
   H        5.57992       -11.78092        -0.64870
   H        5.42918       -12.45939        -2.28677
   H        1.34357       -17.97636         4.06408
   H        3.12581       -18.13017         3.96850
   H        2.12682       -18.67505         2.60955
   H        6.42351       -18.24593         1.02300
   H        7.89946       -14.87137        -4.08830
   H       11.04313       -17.85740        -1.64162
   H        9.02966       -13.52573        -4.93993
*
