# ORCA input file
# SCF done       -175.715911646821          0.000968060347
! CAM-B3LYP def2-SVP def2/J RIJCOSX Grid4 TightSCF
%maxcore 5000
%tddft
    Mode sTDDFT
    Ethresh 5.0
    maxcore 5000
end

%pal
  nprocs 6
  end
* xyz 0 1
   C       -2.34816        -0.45925         2.65115
   C       -3.52784        -0.17825         1.93361
   C       -4.25240         0.95792         2.27040
   C       -3.81917         1.82015         3.27877
   C       -2.62286         1.53078         3.97002
   C       -1.90311         0.37707         3.64334
   N       -2.20289         2.37830         4.95155
   C       -2.84004         3.53479         5.36909
   O       -2.36603         4.20738         6.25661
   C       -4.08387         3.81353         4.63774
   C       -4.53461         2.99438         3.65130
   C       -4.80807         4.97305         4.99528
   N       -5.41573         5.90703         5.26273
   C       -3.99388        -1.06867         0.90046
   S       -5.68397        -1.11619         0.48944
   C       -5.47475        -2.38811        -0.68427
   C       -4.13902        -2.72896        -0.75036
   C       -3.29347        -1.98772         0.13022
   C       -1.93032        -2.33925        -0.05049
   C       -1.76589        -3.30475        -0.99541
   C       -0.51758        -3.90921        -1.46771
   O       -0.45033        -4.73115        -2.34587
   O        0.54838        -3.43099        -0.80381
   C        1.80350        -3.96154        -1.20709
   S       -3.25427        -3.85322        -1.73176
   C       -6.57007        -2.93412        -1.39950
   C       -6.57095        -4.07494        -2.18066
   C       -7.83113        -4.33392        -2.72094
   C       -8.79332        -3.37403        -2.36195
   S       -8.14920        -2.16249        -1.34311
   C      -10.02977        -3.72970        -2.95356
   C       -9.85659        -4.92301        -3.67220
   C       -8.46673        -5.34028        -3.55421
   C       -7.88924        -6.44534        -4.10624
   C       -6.52502        -6.75531        -3.92094
   N       -5.41863        -7.01533        -3.77164
   C       -8.62052        -7.35668        -4.89683
   N       -9.21349        -8.09897        -5.53905
   C      -11.02785        -5.36811        -4.28319
   C      -12.09462        -4.51890        -4.05182
   S      -11.63361        -3.14334        -3.05141
   C      -13.43352        -4.65738        -4.52096
   C      -14.38052        -3.67537        -4.37152
   C      -15.70349        -3.76208        -4.80857
   C      -16.22024        -5.02673        -5.35947
   C      -15.45938        -6.11181        -5.61520
   S      -13.77310        -6.19306        -5.31632
   C      -17.61127        -4.81501        -5.55427
   C      -17.94025        -3.51171        -5.17961
   C      -19.31376        -3.23712        -5.36392
   C      -19.97599        -4.31543        -5.85773
   S      -18.96929        -5.69945        -6.12587
   C      -16.75144        -2.83037        -4.74036
   C      -16.75229        -1.45184        -4.37934
   C      -15.68736        -0.62296        -4.35460
   C      -15.70871         0.78423        -4.03035
   C      -14.49738         1.50492        -4.09420
   C      -14.43574         2.84729        -3.81947
   C      -15.59617         3.54246        -3.46660
   C      -16.82167         2.84645        -3.38913
   C      -16.85637         1.47858        -3.66871
   C      -17.98257         3.58871        -3.03020
   C      -17.92071         4.92246        -2.77263
   C      -16.65678         5.66684        -2.84654
   O      -16.50994         6.85041        -2.63464
   N      -15.57410         4.87952        -3.19665
   C      -19.08753         5.63823        -2.42456
   N      -20.05313         6.18901        -2.14628
   H       -1.80550        -1.36550         2.43951
   H       -5.16610         1.18826         1.74228
   H       -0.99978         0.14451         4.18764
   H       -1.34251         2.16169         5.44278
   H       -5.45429         3.22772         3.13255
   H       -1.09826        -1.88891         0.45712
   H        2.55285        -3.46234        -0.59856
   H        1.97449        -3.76540        -2.26742
   H        1.82924        -5.04056        -1.04184
   H       -5.69879        -4.68433        -2.32815
   H      -11.11110        -6.26109        -4.87583
   H      -14.06697        -2.78207        -3.84881
   H      -15.86269        -7.01444        -6.04648
   H      -19.79277        -2.30005        -5.14491
   H      -21.01983        -4.39463        -6.09112
   H      -17.73595        -1.05279        -4.16940
   H      -14.71774        -1.00295        -4.64239
   H      -13.59424         0.97968        -4.36935
   H      -13.49631         3.37754        -3.87608
   H      -17.80674         0.97293        -3.60079
   H      -18.93066         3.07185        -2.96643
   H      -14.68829         5.36957        -3.25550
*
