# ORCA input file
# SCF done       -194.642588797740          0.000591097218
! CAM-B3LYP def2-SVP def2/J RIJCOSX Grid4 TightSCF
%maxcore 5000
%tddft
    Mode sTDDFT
    Ethresh 5.0
    maxcore 5000
end

%pal
  nprocs 6
  end
* xyz 0 1
   C       -0.34642         0.36459        -4.96873
   C       -0.41946         0.18671        -6.34264
   C       -1.30533        -0.72266        -6.90195
   C       -2.15282        -1.47516        -6.10235
   C       -2.08813        -1.30554        -4.73013
   C       -1.17902        -0.38836        -4.15625
   C       -1.31007        -0.43890        -2.70428
   C       -0.65676         0.37227        -1.81189
   C        0.23533         1.39986        -2.18208
   N        0.97052         2.25217        -2.40900
   C       -0.80077         0.32863        -0.41048
   N       -0.86704         0.35216         0.73639
   C       -2.23326        -1.52166        -2.40461
   C       -2.86100        -1.91155        -3.65771
   C       -4.10829        -2.46476        -3.79145
   C       -4.96372        -2.72830        -2.70177
   N       -5.70649        -2.89920        -1.84300
   C       -4.71891        -2.73746        -5.03119
   N       -5.25795        -2.99384        -6.01187
   C       -2.39329        -2.10015        -1.17060
   C       -2.86815        -3.38993        -0.87073
   C       -3.30079        -3.80461         0.38366
   C       -3.65585        -5.14379         0.39327
   C       -3.44385        -5.79857        -0.84795
   S       -2.83583        -4.71970        -2.03790
   C       -3.82219        -7.12469        -0.67485
   C       -4.27076        -7.25248         0.66268
   N       -4.15315        -6.04654         1.29627
   C       -4.70526        -8.53483         0.98932
   C       -4.59174        -9.40270        -0.08284
   S       -3.93386        -8.62258        -1.51766
   C       -4.92997       -10.77831        -0.16759
   C       -5.53801       -11.48425         0.81725
   C       -5.88623       -12.85721         0.75120
   C       -5.62799       -13.79101        -0.23547
   C       -6.15336       -15.04270         0.08690
   C       -6.82986       -15.07071         1.32910
   S       -6.79351       -13.53534         2.10258
   C       -7.30282       -16.36966         1.49921
   C       -6.89671       -17.10227         0.36091
   N       -6.18892       -16.28840        -0.48441
   C       -5.65502       -16.65237        -1.76684
   C       -7.30383       -18.43806         0.38390
   C       -8.02420       -18.73020         1.52603
   S       -8.20113       -17.34639         2.59685
   C       -8.60724       -19.97383         1.88961
   C       -8.44560       -21.19621         1.26399
   C       -9.17921       -22.19740         1.90075
   C       -9.91416       -21.73907         3.01762
   S       -9.67799       -20.05239         3.27994
   C      -10.59390       -22.83868         3.53446
   C      -10.25088       -23.95189         2.72386
   N       -9.38912       -23.54044         1.74021
   C      -10.85682       -25.13770         3.11336
   C      -11.68410       -24.95237         4.21327
   S      -11.69453       -23.27885         4.77579
   C      -12.51540       -25.88213         4.86463
   C      -12.50811       -27.23189         4.66102
   C      -13.37047       -28.14269         5.30647
   C      -14.62668       -27.89614         5.80481
   C      -15.28058       -28.69151         6.83307
   C      -14.90450       -29.92383         7.30317
   C      -13.80877       -30.68451         6.84658
   N      -12.93922       -31.36764         6.53480
   C      -15.59621       -30.63223         8.30788
   N      -16.10718       -31.26808         9.11601
   C      -16.41997       -27.91568         7.30884
   C      -16.54312       -26.75333         6.51539
   C      -17.53190       -25.81977         6.77741
   C      -18.40314       -26.05564         7.83024
   C      -18.29371       -27.20343         8.60160
   C      -17.30398       -28.14261         8.35175
   C      -15.52269       -26.79525         5.47837
   C      -15.58639       -26.11147         4.29123
   C      -16.55397       -25.12904         3.99980
   N      -17.30260       -24.30952         3.70601
   C      -14.75680       -26.35023         3.17714
   N      -14.15817       -26.51551         2.21120
   H        0.35059         1.07386        -4.55387
   H        0.22790         0.76517        -6.98400
   H       -1.33730        -0.84858        -7.97344
   H       -2.83440        -2.18371        -6.54464
   H       -2.05016        -1.54412        -0.30760
   H       -3.37853        -3.12960         1.21622
   H       -4.42707        -5.84366         2.24191
   H       -5.07951        -8.82702         1.95223
   H       -4.68709       -11.26294        -1.10230
   H       -5.80747       -10.98488         1.73707
   H       -5.08456       -13.56267        -1.13326
   H       -5.35323       -17.69904        -1.75110
   H       -4.78400       -16.03593        -1.98514
   H       -6.39613       -16.51019        -2.55943
   H       -7.10792       -19.15821        -0.38832
   H       -7.82184       -21.34315         0.40252
   H       -9.00560       -24.11877         1.01320
   H      -10.74490       -26.08325         2.61752
   H      -13.18825       -25.47005         5.60707
   H      -11.73268       -27.66160         4.04346
   H      -12.96133       -29.13165         5.46472
   H      -17.62148       -24.92078         6.18948
   H      -19.17509       -25.33417         8.05041
   H      -18.98547       -27.36961         9.41328
   H      -17.23197       -29.02457         8.96630
*
