# ORCA input file
# SCF done       -147.992031620216          0.000486510510
! CAM-B3LYP def2-SVP def2/J RIJCOSX Grid4 TightSCF
%maxcore 5000
%tddft
    Mode sTDDFT
    Ethresh 5.0
    maxcore 5000
end

%pal
  nprocs 6
  end
* xyz 0 1
   C        2.43243        -2.32737        -0.57317
   C        2.09777        -1.99110         0.70308
   C        1.60231        -0.67482         0.77299
   C        1.57721        -0.04663        -0.47672
   S        2.15546        -1.05987        -1.72240
   C        1.06873         1.27476        -0.31158
   C        0.77768         1.47188         1.04402
   C        1.09963         0.25185         1.77236
   C        0.95386         0.02981         3.11045
   C        0.44776         1.00936         3.99091
   N        0.03703         1.79258         4.72078
   C        1.29676        -1.20109         3.70805
   N        1.57380        -2.19962         4.19917
   C        0.27586         2.74749         1.31351
   C        0.18105         3.51999         0.17449
   S        0.72216         2.65000        -1.25644
   C       -0.28080         4.87265         0.06399
   C       -0.37551         5.53105        -1.15232
   C       -0.80916         6.85030        -1.28118
   C       -1.19196         7.61533        -0.19226
   C       -1.09727         6.98686         1.07629
   C       -0.65572         5.62467         1.21002
   N       -0.64862         5.23383         2.48336
   S       -1.14721         6.44416         3.41270
   N       -1.39838         7.52849         2.25537
   C       -1.61657         8.99318        -0.27694
   C       -2.27141         9.67898        -1.28013
   C       -2.85893         9.07030        -2.49238
   O       -2.29021         8.40298        -3.31965
   O       -4.16685         9.35030        -2.58428
   C       -2.50837        11.05040        -0.95158
   C       -2.03680        11.36160         0.29405
   S       -1.32896        10.02945         1.08908
   C       -3.10379        12.02711        -1.84929
   C       -2.93094        11.98479        -3.21920
   C       -3.50098        12.92414        -4.07933
   C       -4.28071        13.97949        -3.63546
   C       -4.46860        14.07088        -2.22985
   C       -3.87437        13.10214        -1.34585
   N       -4.16306        13.35500        -0.06833
   S       -5.08278        14.66770         0.01141
   N       -5.16427        14.98798        -1.55968
   C       -4.86330        14.93561        -4.53260
   C       -5.59180        16.06224        -4.21451
   C       -6.00056        16.76392        -5.35196
   C       -5.58214        16.16236        -6.54460
   S       -4.68276        14.74029        -6.27246
   C       -6.05192        16.94880        -7.63691
   C       -6.76141        18.04128        -7.12735
   C       -6.75350        17.96834        -5.67656
   C       -7.32394        18.84325        -4.79901
   C       -8.03112        19.98479        -5.23100
   N       -8.60697        20.91440        -5.57660
   C       -7.24574        18.67379        -3.40042
   N       -7.19047        18.55313        -2.26141
   C       -7.26577        18.87584        -8.14344
   C       -6.93540        18.40800        -9.37856
   S       -6.00506        16.94587        -9.34293
   H        2.83316        -3.25694        -0.92459
   H        2.20345        -2.65397         1.54226
   H       -0.01047         3.11875         2.28014
   H       -0.09172         5.00076        -2.05011
   H       -0.83715         7.28521        -2.26615
   H       -4.53721         8.95572        -3.38984
   H       -2.07782        12.31824         0.77360
   H       -2.31483        11.20868        -3.64869
   H       -3.31922        12.82474        -5.14011
   H       -5.80181        16.33747        -3.19756
   H       -7.83930        19.76929        -7.97733
   H       -7.18174        18.83342       -10.33066
*
