# ORCA input file
# SCF done       -208.775914577961          0.000726892142
! CAM-B3LYP def2-SVP def2/J RIJCOSX Grid4 TightSCF
%maxcore 5000
%tddft
    Mode sTDDFT
    Ethresh 5.0
    maxcore 5000
end

%pal
  nprocs 6
  end
* xyz 0 1
   C       -0.44193         0.81092        -0.39897
   C        0.18399         1.59737        -1.33233
   C        0.68206         1.11272        -2.55964
   N        1.11127         0.77358        -3.56860
   C        0.49434         2.95660        -1.13912
   N        0.79310         4.05888        -1.01611
   C       -0.56486        -0.64081        -0.48293
   C       -0.79155        -1.15443         0.82745
   C       -0.91501        -2.49379         1.06025
   C       -0.82701        -3.39305        -0.02674
   C       -0.62000        -2.88336        -1.34126
   C       -0.48971        -1.49127        -1.55225
   C       -0.54310        -3.79028        -2.41747
   C       -0.66098        -5.13729        -2.20753
   C       -0.86387        -5.63856        -0.91317
   C       -0.94494        -4.78522         0.15378
   C       -0.88054        -0.03319         1.77877
   O       -1.01078        -0.07754         2.98111
   C       -0.83891         1.19822         0.93778
   C       -1.22802         2.38277         1.48740
   C       -1.64710         3.55671         0.82584
   C       -2.12085         3.69826        -0.47033
   C       -2.47155         5.00866        -0.76357
   C       -2.26349         5.88959         0.31856
   S       -1.66966         5.08811         1.69718
   C       -2.61537         7.19559        -0.09830
   C       -3.04998         7.14320        -1.43432
   C       -2.96300         5.76672        -1.89912
   C       -3.24199         5.28691        -3.14485
   C       -3.70628         6.11659        -4.18696
   N       -4.08976         6.79029        -5.03156
   C       -3.07721         3.92149        -3.46034
   N       -2.94415         2.80844        -3.70208
   C       -3.41083         8.38945        -1.94099
   C       -3.24677         9.39710        -1.00615
   S       -2.64462         8.78739         0.52766
   C       -3.49022        10.78104        -1.18732
   C       -3.21516        11.80725        -0.30466
   C       -3.55617        13.04916        -0.84205
   C       -4.10692        12.96737        -2.14304
   S       -4.19550        11.34049        -2.70058
   C       -4.37372        14.27286        -2.54686
   C       -3.97132        15.11680        -1.48456
   N       -3.49297        14.35942        -0.44853
   C       -2.94969        14.85147         0.78684
   C       -4.15135        16.47380        -1.75564
   C       -4.69766        16.67175        -3.00871
   S       -5.00091        15.16994        -3.87629
   C       -4.99710        17.90724        -3.63474
   C       -5.63149        18.09826        -4.84987
   C       -5.74246        19.44887        -5.17363
   C       -5.18066        20.29738        -4.20294
   S       -4.53098        19.42532        -2.88200
   C       -5.32085        21.64127        -4.62091
   C       -5.98741        21.63888        -5.87110
   C       -6.27384        20.26560        -6.25366
   C       -6.90097        19.83003        -7.38324
   C       -7.36855        20.71735        -8.37609
   N       -7.74702        21.42983        -9.19053
   C       -7.12151        18.45993        -7.63886
   N       -7.30531        17.34654        -7.84195
   C       -6.16880        22.91410        -6.36841
   C       -5.63316        23.90023        -5.53040
   S       -4.89499        23.20188        -4.08695
   C       -5.71484        25.26321        -5.84990
   C       -5.19821        26.35831        -5.20497
   C       -5.33734        27.74010        -5.62567
   C       -6.13478        28.22680        -6.62926
   C       -6.22719        29.59228        -6.97109
   N       -6.34713        30.68527        -7.30166
   C       -6.99262        27.45955        -7.44461
   N       -7.72254        26.90914        -8.14013
   C       -4.49540        28.55128        -4.75098
   C       -3.89591        27.69831        -3.78009
   C       -4.33804        26.31773        -4.01754
   O       -4.03573        25.33502        -3.35863
   C       -3.04928        28.17436        -2.82124
   C       -2.75365        29.55580        -2.78980
   C       -3.34752        30.41658        -3.75702
   C       -4.22289        29.89290        -4.73707
   C       -3.04481        31.79247        -3.71796
   C       -2.19544        32.29601        -2.77022
   C       -1.61025        31.44737        -1.81917
   C       -1.88389        30.10626        -1.82838
   H       -1.07938        -2.86455         2.06111
   H       -0.34765        -1.12973        -2.55868
   H       -0.38410        -3.39908        -3.41154
   H       -0.59819        -5.82426        -3.03814
   H       -0.95606        -6.70421        -0.76552
   H       -1.10147        -5.16589         1.15256
   H       -1.28624         2.38992         2.57152
   H       -2.23934         2.86820        -1.14276
   H       -3.76830         8.57652        -2.93758
   H       -2.77746        11.63947         0.66281
   H       -3.43751        15.78923         1.04907
   H       -1.87250        15.02421         0.70387
   H       -3.12954        14.12427         1.57765
   H       -3.90334        17.28545        -1.09579
   H       -5.98735        17.28141        -5.45151
   H       -6.65908        23.15634        -7.29483
   H       -6.26241        25.44775        -6.76649
   H       -2.60834        27.50562        -2.09685
   H       -4.65180        30.57172        -5.45664
   H       -3.49810        32.44199        -4.45235
   H       -1.96985        33.35165        -2.74883
   H       -0.94150        31.86106        -1.07921
   H       -1.43612        29.44779        -1.09834
*
