# ORCA input file
# SCF done       -220.135139723554          0.001555507669
! CAM-B3LYP def2-SVP def2/J RIJCOSX Grid4 TightSCF
%maxcore 5000
%tddft
    Mode sTDDFT
    Ethresh 5.0
    maxcore 5000
end

%pal
  nprocs 6
  end
* xyz 0 1
   C        4.57816         9.92663        -3.05226
   C        4.30183         9.94925        -1.70965
   C        4.68438        10.99653        -0.84715
   N        4.95479        11.82853        -0.10413
   C        3.68995         8.88283        -1.01994
   N        3.23834         8.01948        -0.41148
   C        5.47654        10.84679        -3.73907
   C        5.95089        10.21261        -4.92549
   C        6.86853        10.81256        -5.73907
   C        7.34993        12.09864        -5.40506
   C        6.85673        12.74916        -4.23661
   C        5.91329        12.10086        -3.40698
   C        7.33574        14.03727        -3.92246
   C        8.26510        14.65105        -4.71742
   C        8.75571        14.00715        -5.86325
   C        8.30709        12.75889        -6.20049
   C        5.29967         8.89908        -5.07181
   O        5.48052         8.06207        -5.92554
   C        4.30272         8.83266        -3.96247
   C        3.32446         7.89145        -3.99043
   C        2.10243         7.85588        -3.27156
   C        1.39280         6.71931        -2.92752
   C        0.25060         7.01463        -2.18715
   C        0.05331         8.39796        -2.01856
   S        1.28348         9.32563        -2.74175
   C       -1.10559         8.59660        -1.22806
   C       -1.62497         7.34292        -0.87186
   C       -0.80327         6.30627        -1.48148
   C       -0.98916         4.95846        -1.40090
   C       -2.05818         4.39061        -0.67494
   N       -2.92940         3.92087        -0.09651
   C       -0.13464         4.04067        -2.04872
   N        0.55557         3.29311        -2.57670
   C       -2.73435         7.43476        -0.03309
   C       -3.07607         8.74641         0.24214
   S       -2.00818         9.88544        -0.56259
   C       -4.12702         9.16221         1.10940
   C       -4.65379        10.41852         1.30601
   C       -5.70441        10.44630         2.28068
   C       -5.93075         9.15427         2.82530
   S       -4.88754         7.95301         2.11283
   C       -6.86791         8.86869         3.80055
   C       -7.07840         7.47036         4.29673
   C       -8.21271         6.79192         3.52569
   C       -7.63898         9.94352         4.25073
   C       -7.43525        11.22927         3.69641
   C       -6.49355        11.52015         2.72209
   C       -6.43253        12.91139         2.16628
   C       -7.40171        13.06367         0.99195
   S       -8.52990        12.39300         4.40307
   C       -9.21944        11.17061         5.41151
   C       -8.67243         9.95135         5.23457
   C       -4.17502        11.55878         0.53509
   C       -4.58081        11.91945        -0.72110
   C       -3.91766        13.06872        -1.17834
   C       -2.98654        13.55777        -0.25439
   S       -2.92205        12.61780         1.17102
   C       -2.38590        14.72934        -0.79304
   C       -2.96122        14.98344        -2.05331
   C       -3.92329        13.93148        -2.34638
   C       -4.65911        13.77274        -3.48332
   C       -4.56338        14.64972        -4.58544
   N       -4.48611        15.33761        -5.49916
   C       -5.55132        12.69122        -3.64299
   N       -6.27257        11.80880        -3.76828
   C       -2.48239        16.14470        -2.64862
   C       -1.53358        16.77929        -1.86103
   S       -1.21696        15.88727        -0.36986
   C       -0.78392        17.95208        -2.10174
   C       -1.13477        19.00839        -2.89272
   C       -0.27767        20.13650        -3.20417
   C        1.09152        20.14606        -3.14057
   C        1.88885        21.25684        -3.48474
   N        2.59051        22.12775        -3.74373
   C        1.88059        19.03538        -2.77569
   N        2.58027        18.16189        -2.51799
   C       -1.12090        21.21564        -3.69880
   C       -2.45999        20.73791        -3.78225
   C       -2.51690        19.33475        -3.33700
   O       -3.50519        18.63561        -3.27729
   C       -3.48257        21.53199        -4.21495
   C       -3.20642        22.86564        -4.59156
   C       -1.86927        23.35156        -4.50897
   C       -0.83078        22.50549        -4.05640
   C       -1.60707        24.68482        -4.88423
   C       -2.61556        25.50090        -5.31964
   C       -3.93171        25.02205        -5.39917
   C       -4.22063        23.73217        -5.04413
   H        7.22693        10.31055        -6.62548
   H        5.55132        12.61650        -2.53098
   H        6.95748        14.52791        -3.03789
   H        8.62816        15.63631        -4.46664
   H        9.49033        14.50533        -6.47804
   H        8.68024        12.25890        -7.08233
   H        3.47974         7.07768        -4.69323
   H        1.73556         5.72951        -3.16919
   H       -3.27687         6.59892         0.37073
   H       -7.31545         7.48535         5.36158
   H       -6.15821         6.89769         4.16015
   H       -9.13988         7.34872         3.64245
   H       -8.36423         5.77980         3.89186
   H       -7.97119         6.74403         2.46649
   H       -5.42432        13.16036         1.84413
   H       -6.71711        13.61493         2.95253
   H       -7.15251        12.36705         0.19499
   H       -7.35602        14.07517         0.59656
   H       -8.42011        12.86517         1.31672
   H      -10.00823        11.44824         6.08339
   H       -8.98468         9.07925         5.77923
   H       -5.32508        11.37495        -1.27330
   H       -2.78743        16.51263        -3.60966
   H        0.14973        18.01702        -1.55435
   H       -4.48989        21.14675        -4.27065
   H        0.17003        22.90320        -3.99515
   H       -0.59192        25.04859        -4.82236
   H       -2.40438        26.52051        -5.60524
   H       -4.71554        25.68023        -5.74298
   H       -5.23213        23.35786        -5.10383
*
