# ORCA input file
# SCF done       -234.959335089799          0.000523529111
! CAM-B3LYP def2-SVP def2/J RIJCOSX Grid4 TightSCF
%maxcore 5000
%tddft
    Mode sTDDFT
    Ethresh 5.0
    maxcore 5000
end

%pal
  nprocs 6
  end
* xyz 0 1
   C        0.53450         0.94978        -1.44963
   C       -0.55888         1.39681        -0.75730
   C       -0.90554         0.94487         0.53196
   N       -1.21465         0.62200         1.58933
   C       -1.50737         2.29422        -1.28998
   N       -2.34496         2.96683        -1.69464
   C        1.39286        -0.16228        -1.05983
   C        2.07617        -0.63517        -2.21896
   C        2.93156        -1.69745        -2.16269
   C        3.15587        -2.33724        -0.92289
   C        2.48722        -1.85999         0.24166
   C        1.59927        -0.76364         0.15274
   C        2.72782        -2.50196         1.47358
   C        3.58539        -3.56501         1.55341
   C        4.24227        -4.03496         0.40617
   C        4.03123        -3.43490        -0.80541
   C        1.71483         0.20415        -3.37609
   O        2.04829         0.07010        -4.53080
   C        0.89283         1.31255        -2.80924
   C        0.70427         2.44856        -3.51919
   C        0.28436         3.73926        -3.03457
   C       -0.46451         4.57680        -3.87378
   C       -0.87602         5.80345        -3.41226
   C       -0.54230         6.21636        -2.10946
   C        0.24363         5.41695        -1.29081
   C        0.64958         4.18535        -1.75725
   C       -1.16302         7.49726        -1.85617
   C       -1.88865         7.87389        -2.99872
   C       -1.71189         6.85480        -4.10456
   C       -0.93442         7.55636        -5.24400
   C       -0.46714         6.65948        -6.38256
   C       -3.05391         6.28920        -4.59322
   C       -3.88677         5.70508        -3.45775
   C       -2.59313         9.05255        -3.02392
   C       -2.58640         9.88766        -1.89734
   C       -1.84882         9.50054        -0.76984
   C       -1.14487         8.31460        -0.73501
   C       -3.28994        11.15148        -1.86017
   C       -4.21864        11.57219        -2.73495
   C       -4.88375        12.85095        -2.68772
   C       -6.01897        13.10340        -3.47420
   N       -6.65102        14.25473        -3.48597
   C       -6.16301        15.22009        -2.70408
   N       -5.09222        15.09724        -1.91733
   C       -4.46877        13.94260        -1.90975
   C       -6.81551        16.50274        -2.71089
   C       -7.94364        16.86984        -3.38260
   C       -8.29867        18.22382        -3.17369
   C       -9.38806        18.93237        -3.72340
   C      -10.31704        18.33815        -4.66350
   C      -11.66730        18.53187        -4.73667
   C      -12.26097        17.83913        -5.81344
   C      -11.38471        17.12609        -6.57885
   S       -9.77943        17.29764        -5.95482
   C      -11.65870        16.29591        -7.77880
  Cl      -13.95388        17.90006        -6.12151
   C       -9.52732        20.25866        -3.32756
   C       -8.62309        20.90353        -2.44313
   C       -7.51070        20.20602        -1.92325
   C       -7.39515        18.86785        -2.28551
   S       -6.12521        17.79110        -1.77261
   C       -6.53437        20.88295        -1.09802
   C       -6.05549        22.15674        -1.23676
   C       -5.10609        22.48686        -0.24752
   C       -4.85072        21.49025         0.65053
   S       -5.79486        20.09103         0.26859
   C       -3.92323        21.49851         1.80971
  Cl       -4.34387        24.02813        -0.18968
   C       -8.98216        22.24503        -2.20107
   C      -10.07486        22.66524        -2.91441
   S      -10.76536        21.35551        -3.86536
   C      -10.71203        23.92897        -2.94479
   C      -10.15794        25.14513        -2.66631
   C      -10.88916        26.40081        -2.63496
   C      -12.24496        26.54455        -2.49819
   C      -12.90248        27.79109        -2.44391
   N      -13.49402        28.77408        -2.39975
   C      -13.16165        25.48241        -2.34811
   N      -13.96434        24.67550        -2.19564
   C       -9.91898        27.48717        -2.67252
   C       -8.61260        26.92288        -2.64242
   C       -8.70551        25.45463        -2.59847
   O       -7.76923        24.68300        -2.57768
   C       -7.48885        27.69780        -2.65264
   C       -7.62375        29.10326        -2.69587
   C       -8.92747        29.67678        -2.73785
   C      -10.07263        28.84723        -2.72604
   C       -9.04928        31.08031        -2.78722
   C       -7.93886        31.88002        -2.79118
   C       -6.65602        31.31405        -2.74746
   C       -6.50186        29.95506        -2.70078
   H        3.43366        -2.04522        -3.05333
   H        1.11175        -0.41583         1.05045
   H        2.21710        -2.13883         2.35340
   H        3.76216        -4.05049         2.50146
   H        4.91645        -4.87442         0.48744
   H        4.53402        -3.79221        -1.69227
   H        0.96107         2.38644        -4.57241
   H       -0.75152         4.21537        -4.84922
   H        0.52363         5.74693        -0.30178
   H        1.27930         3.55895        -1.14115
   H       -0.06125         8.04531        -4.80317
   H       -1.57878         8.33963        -5.64958
   H        0.26482         5.93699        -6.03247
   H        0.00361         7.27020        -7.15021
   H       -1.29928         6.12976        -6.83827
   H       -2.86475         5.50958        -5.33203
   H       -3.61257         7.08909        -5.08510
   H       -3.35649         4.89398        -2.96548
   H       -4.82436         5.31524        -3.84744
   H       -4.11434         6.46704        -2.71520
   H       -3.13856         9.34316        -3.90844
   H       -1.84244        10.14857         0.09511
   H       -0.58863         8.03205         0.14607
   H       -3.03324        11.78711        -1.02247
   H       -4.53947        10.92587        -3.54135
   H       -6.43032        12.33406        -4.11755
   H       -3.59494        13.89069        -1.27346
   H       -8.48890        16.17555        -3.99325
   H      -12.23436        19.11279        -4.03346
   H      -12.72881        16.27103        -7.96878
   H      -11.29934        15.27821        -7.63171
   H      -11.15445        16.70639        -8.65342
   H       -6.33408        22.83169        -2.02498
   H       -3.41813        22.45945         1.86814
   H       -3.17796        20.71050         1.70817
   H       -4.46736        21.32678         2.73787
   H       -8.48307        22.86606        -1.48432
   H      -11.74276        23.90692        -3.27912
   H       -6.50937        27.24370        -2.62461
   H      -11.04534        29.31135        -2.76536
   H      -10.03898        31.51183        -2.81898
   H       -8.04309        32.95408        -2.82745
   H       -5.79077        31.96001        -2.75130
   H       -5.51684        29.51286        -2.66725
*
