# ORCA input file
# SCF done       -207.286908109161          0.000376595864
! CAM-B3LYP def2-SVP def2/J RIJCOSX Grid4 TightSCF
%maxcore 5000
%tddft
    Mode sTDDFT
    Ethresh 5.0
    maxcore 5000
end

%pal
  nprocs 6
  end
* xyz 0 1
   C       -1.91688         2.51442        -2.22139
   C       -2.30885         3.79618        -2.50500
   C       -3.37724         4.11705        -3.36619
   N       -4.24243         4.42903        -4.05274
   C       -1.61417         4.93071        -2.03808
   N       -1.03714         5.86606        -1.70552
   C       -2.39525         1.31185        -2.89076
   C       -1.41366         0.28804        -2.73646
   C       -1.57028        -0.94318        -3.30514
   C       -2.73838        -1.21347        -4.05341
   C       -3.73165        -0.20069        -4.19205
   C       -3.53997         1.06876        -3.60001
   C       -4.89587        -0.48799        -4.93295
   C       -5.07050        -1.71399        -5.51495
   C       -4.09089        -2.70925        -5.38112
   C       -2.95010        -2.46443        -4.66587
   C       -0.30920         0.79150        -1.90096
   O        0.72271         0.23564        -1.60160
   C       -0.75906         2.13554        -1.43649
   C       -0.14986         2.72973        -0.37919
   C       -0.65102         3.76473         0.45091
   S       -2.35774         3.98194         0.71783
   C       -2.06980         5.30524         1.80824
   C       -0.71212         5.55868         1.94069
   C        0.08227         4.66862         1.20179
   C        1.57413         4.74038         1.18295
   C        2.08665         5.49604         2.41726
   C        1.84163         4.71406         3.60854
   N        1.62524         4.10030         4.54743
   C        1.36004         6.85321         2.54029
   C        1.57561         7.61663         1.33085
   N        1.76319         8.22808         0.38459
   C       -0.14187         6.64869         2.79131
   C       -3.18912         5.92695         2.41744
   C       -4.51584         5.61184         2.17192
   C       -5.39220         6.36925         2.94335
   C       -4.73229         7.27515         3.79148
   S       -3.03536         7.19361         3.62970
   C       -5.70125         7.99299         4.53475
   C       -6.97886         7.54083         4.15244
   C       -6.82690         6.50506         3.14389
   C       -7.81563         5.79861         2.52495
   C       -7.53771         4.79518         1.57271
   N       -7.31393         3.97325         0.80529
   C       -9.18015         6.01918         2.80733
   N      -10.28884         6.19700         3.03936
   C       -8.00551         8.18619         4.83667
   C       -7.52024         9.12120         5.73656
   S       -5.76117         9.20441         5.72961
   C       -8.26871         9.97708         6.59571
   C       -7.64913        10.87048         7.43993
   C       -8.30090        11.76354         8.28312
   C       -9.75900        11.71561         8.43371
   C      -10.56843        10.91646         7.70122
   S      -10.01384         9.83455         6.49294
   C      -10.06743        12.64594         9.46512
   C       -8.89416        13.24341         9.92545
   C       -9.14087        14.18550        10.94681
   C      -10.46702        14.27338        11.23201
   S      -11.46454        13.22988        10.27717
   C       -7.77477        12.72960         9.17616
   C       -6.44438        13.15312         9.34529
   C       -5.42455        12.92606         8.45908
   C       -4.08649        13.24997         8.71107
   C       -3.05215        12.89234         7.87342
   C       -1.65159        13.20478         8.04378
   C       -1.08444        13.95968         9.04189
   C        0.29635        14.22133         9.14760
   N        1.40779        14.47058         9.29653
   C       -1.77954        14.58304        10.09703
   N       -2.26852        15.12396        10.98542
   C       -0.91825        12.58665         6.94106
   C       -1.84834        11.90389         6.10757
   C       -3.20421        12.06584         6.65951
   O       -4.22532        11.58592         6.19210
   C       -1.45970        11.23861         4.98159
   C       -0.09338        11.23793         4.61982
   C        0.84553        11.91078         5.45271
   C        0.41233        12.58120         6.62093
   C        2.20520        11.90983         5.08212
   C        2.61796        11.29077         3.93347
   C        1.69107        10.64161         3.10495
   C        0.36566        10.60893         3.44637
   H       -0.81236        -1.70328        -3.18669
   H       -4.30941         1.81711        -3.71056
   H       -5.64562         0.28262        -5.03532
   H       -5.96470        -1.92362        -6.08256
   H       -4.24483        -3.67106        -5.84701
   H       -2.19287        -3.22737        -4.55896
   H        0.80611         2.30110        -0.09225
   H        1.89917         5.26583         0.27895
   H        2.00213         3.73503         1.15416
   H        3.16769         5.65820         2.32942
   H        1.78377         7.43136         3.37176
   H       -0.66869         7.58707         2.59491
   H       -0.29545         6.40205         3.84795
   H       -4.80844         4.86158         1.45947
   H       -9.05455         7.99692         4.69548
   H       -6.56983        10.84319         7.43891
   H      -11.64039        10.91361         7.82075
   H       -8.38732        14.76628        11.44658
   H      -10.94099        14.90124        11.96092
   H       -6.22888        13.71401        10.24765
   H       -5.63999        12.48501         7.50171
   H       -3.86169        13.77945         9.62758
   H       -2.18686        10.72929         4.36581
   H        1.14990        13.08231         7.22703
   H        2.91410        12.41805         5.71921
   H        3.66025        11.30493         3.65195
   H        2.02823        10.17744         2.19031
   H       -0.35325        10.11706         2.80637
*
