# ORCA input file
# SCF done       -172.497698946415          0.000782108926
! CAM-B3LYP def2-SVP def2/J RIJCOSX Grid4 TightSCF
%maxcore 5000
%tddft
    Mode sTDDFT
    Ethresh 5.0
    maxcore 5000
end

%pal
  nprocs 6
  end
* xyz 0 1
   C      -17.05530         5.05290        -5.52151
   C      -15.95390         4.27504        -5.72434
   C      -14.64945         4.69771        -5.38115
   C      -14.36986         5.92068        -4.81642
   C      -15.49825         6.76267        -4.61194
   C      -16.83110         6.32157        -4.95620
   N      -17.66161         7.29874        -4.64256
   O      -16.91135         8.27570        -4.13965
   N      -15.61358         7.97830        -4.11060
   C      -13.02377         6.34602        -4.44139
   C      -12.69795         7.70771        -4.42306
   C      -11.43057         8.09271        -4.05876
   C      -10.46270         7.13854        -3.70382
   C      -10.77821         5.78811        -3.71524
   C      -12.05321         5.40434        -4.08330
   C       -9.24137         7.83119        -3.35033
   C       -9.45927         9.21437        -3.48105
   C      -10.86605         9.48952        -3.95859
   C      -10.86499        10.19180        -5.32963
   C      -10.10587         9.41023        -6.39522
   C      -11.65447        10.33986        -2.94561
   C      -11.70377         9.71180        -1.55822
   C       -8.46565        10.11325        -3.18460
   C       -7.21551         9.64648        -2.74804
   C       -7.00902         8.26285        -2.64390
   C       -8.00636         7.35479        -2.93522
   C       -6.13610        10.53186        -2.38833
   C       -6.20041        11.87392        -2.27619
   C       -5.11588        12.70443        -1.87946
   C       -5.16005        14.07237        -1.68546
   C       -3.93238        14.58806        -1.26479
   C       -2.94068        13.60113        -1.14503
   S       -3.51860        12.04531        -1.54555
   C       -1.74379        14.21516        -0.69591
   C       -1.98114        15.58893        -0.52612
   C       -3.36268        15.87012        -0.88611
   C       -3.98844        17.08270        -0.87032
   C       -3.32445        18.26408        -0.48041
   N       -2.78643        19.22560        -0.16174
   C       -5.33828        17.23576        -1.24858
   N       -6.43713        17.36379        -1.55156
   C       -0.86299        16.28145        -0.06272
   C        0.22791        15.45038         0.11486
   S       -0.14278        13.77713        -0.30004
   C        1.52390        15.79993         0.59688
   C        2.56159        14.90191         0.63376
   C        3.84166        15.16430         1.12370
   C        4.18793        16.51668         1.59071
   C        3.32447        17.55413         1.63654
   S        1.68047        17.45903         1.16118
   C        5.56324        16.45856         1.94245
   C        6.04710        15.17148         1.71493
   C        7.41346        15.05115         2.05262
   C        7.91901        16.22461         2.51453
   S        6.76747        17.51720         2.56292
   C        4.97954        14.34150         1.21565
   C        5.17535        12.96988         0.90354
   C        4.22733        12.03228         0.66702
   C        4.46541        10.66443         0.31220
   C        5.68841        10.02735         0.21260
   C        5.82215         8.67352        -0.15411
   C        4.75460         7.87113        -0.44960
   C        3.48135         8.46322        -0.37117
   C        3.33762         9.84753         0.01014
   N        2.05082        10.12865        -0.00687
   O        1.42894         9.00554        -0.36950
   N        2.26761         7.99201        -0.59366
   H      -18.05353         4.73846        -5.77433
   H      -16.06682         3.29469        -6.16334
   H      -13.83651         4.02026        -5.59444
   H      -13.44459         8.43752        -4.69150
   H      -10.04606         5.04669        -3.43180
   H      -12.31230         4.35628        -4.06135
   H      -10.41441        11.18009        -5.21619
   H      -11.89961        10.33052        -5.64958
   H       -9.06498         9.27805        -6.10763
   H      -10.13593         9.94339        -7.34274
   H      -10.54899         8.42725        -6.53930
   H      -12.67234        10.47000        -3.31781
   H      -11.19112        11.32681        -2.88139
   H      -12.19456         8.74195        -1.59488
   H      -12.26053        10.35262        -0.87878
   H      -10.70039         9.57579        -1.15964
   H       -8.64230        11.17231        -3.29136
   H       -6.04329         7.90592        -2.31521
   H       -7.82707         6.29429        -2.83907
   H       -5.19258        10.04774        -2.16295
   H       -7.12263        12.40443        -2.46748
   H       -6.05108        14.65383        -1.83877
   H       -0.83255        17.33749         0.13668
   H        2.35024        13.92333         0.22810
   H        3.61392        18.53184         1.98838
   H        7.99699        14.15269         1.96313
   H        8.92068        16.42493         2.84146
   H        6.21547        12.66933         0.87754
   H        3.18019        12.27679         0.74725
   H        6.59079        10.57855         0.42792
   H        6.81969         8.26134        -0.20146
   H        4.86002         6.83740        -0.73131
*
