# ORCA input file
# SCF done       -184.009663977830          0.000451361412
! CAM-B3LYP def2-SVP def2/J RIJCOSX Grid4 TightSCF
%maxcore 5000
%tddft
    Mode sTDDFT
    Ethresh 5.0
    maxcore 5000
end

%pal
  nprocs 6
  end
* xyz 0 1
   C       -1.65291         6.77055         4.48919
   N       -1.41874         8.04600         4.51155
   O       -2.48038         8.68073         3.99914
   C       -3.41729         7.77115         3.63606
   C       -4.64052         8.24610         3.05735
   O       -5.54562         7.53572         2.67027
   C       -2.93986         6.48631         3.93430
   C       -3.54982         5.22414         3.73528
   S       -5.08726         5.06049         2.92758
   C       -5.06423         3.32525         3.04651
   C       -3.91842         2.90645         3.70084
   C       -3.05799         3.96548         4.10090
   C       -1.92721         3.47182         4.79504
   C       -1.93903         2.11259         4.90501
   C       -0.95605         1.24872         5.56565
   O       -1.04382         0.04907         5.63284
   O        0.05397         1.95887         6.09370
   C        1.04966         1.19627         6.76221
   S       -3.32108         1.34789         4.16793
   C       -6.11732         2.53695         2.52022
   C       -6.17623         1.15687         2.42317
   C       -7.36667         0.72914         1.83742
   C       -8.22347         1.79038         1.49681
   S       -7.55913         3.31385         1.88330
   C       -9.40035         1.25121         0.91604
   C       -9.28326        -0.14747         0.87921
   C       -8.00272        -0.52339         1.45743
   C       -7.50320        -1.78276         1.60797
   C       -6.23672        -2.02878         2.18036
   N       -5.20869        -2.24293         2.64002
   C       -8.21764        -2.92838         1.19708
   N       -8.79479        -3.86249         0.86730
   C      -10.39836        -0.77060         0.31531
   C      -11.36113         0.14153        -0.06655
   S      -10.88369         1.79845         0.27074
   C      -12.62217        -0.12873        -0.66444
   C      -13.61806         0.76020        -0.95063
   C      -14.75938         0.16785        -1.54160
   C      -15.96347         0.79138        -1.92177
   C      -16.23030         2.19312        -1.67392
   C      -16.91754         3.07253        -2.46136
   C      -17.04791         4.34867        -1.87252
   C      -16.48441         4.46233        -0.63485
   S      -15.75600         2.96050        -0.17923
   C      -16.44507         5.64029         0.26750
  Cl      -17.85644         5.64452        -2.66410
   C      -16.92225        -0.02164        -2.52542
   C      -16.74209        -1.41366        -2.72234
   C      -15.54912        -2.04671        -2.31079
   C      -14.58302        -1.22578        -1.74277
   S      -13.03833        -1.76267        -1.13806
   C      -15.33145        -3.47286        -2.44295
   C      -14.17332        -4.11652        -2.77349
   C      -14.30149        -5.52237        -2.75326
   C      -15.53949        -5.97238        -2.39758
   S      -16.58848        -4.63014        -2.08949
   C      -16.02122        -7.37001        -2.26447
  Cl      -12.99217        -6.56779        -3.14791
   C      -17.86516        -1.99588        -3.34938
   C      -18.87734        -1.10833        -3.59739
   S      -18.48207         0.51264        -3.08046
   C      -20.12257        -1.43344        -4.21384
   C      -21.21740        -0.63307        -4.53850
   O      -22.16723        -1.40889        -5.11072
   N      -21.73613        -2.67524        -5.16991
   C      -20.54502        -2.72295        -4.65386
   C      -21.49599         0.77705        -4.38586
   O      -20.74601         1.58575        -3.89410
   H       -0.90987         6.09248         4.85074
   H       -4.69486         9.34476         2.98962
   H       -1.13735         4.06226         5.21694
   H        1.77429         1.91141         7.14218
   H        1.52312         0.49982         6.06734
   H        0.60425         0.62657         7.58024
   H       -5.38473         0.51132         2.75620
   H      -10.52101        -1.83086         0.18552
   H      -13.52519         1.81069        -0.74453
   H      -17.29610         2.84309        -3.43960
   H      -16.88068         6.49947        -0.23619
   H      -15.41972         5.87433         0.55086
   H      -17.00842         5.44371         1.17968
   H      -13.26563        -3.61868        -3.05901
   H      -15.22364        -8.05736        -2.53464
   H      -16.87771        -7.54652        -2.91426
   H      -16.33084        -7.57331        -1.23960
   H      -17.92148        -3.03377        -3.61798
   H      -20.01697        -3.65251        -4.60111
   H      -22.49068         1.05889        -4.77207
*
