# ORCA input file
# SCF done       -173.129436484340          0.000697918957
! CAM-B3LYP def2-SVP def2/J RIJCOSX Grid4 TightSCF
%maxcore 5000
%tddft
    Mode sTDDFT
    Ethresh 5.0
    maxcore 5000
end

%pal
  nprocs 6
  end
* xyz 0 1
   C        7.28373         0.46156         2.82414
   C        7.32954         1.73848         3.59471
   O        6.93789         2.81731         3.20822
   C        7.88981         1.37001         4.90702
   C        8.29263         0.03322         4.88460
   C        8.08417        -0.50686         3.54637
   C        8.75930        -1.56113         2.99437
   C        8.75298        -1.84376         1.61126
   N        8.82671        -2.06932         0.48838
   C        9.62299        -2.41178         3.71404
   N       10.32863        -3.13933         4.25253
   C        8.83453        -0.57076         6.02605
   C        8.97203         0.18019         7.16404
   C        8.59380         1.54014         7.21580
   C        8.03194         2.16265         6.06298
   C        7.65201         3.51884         6.12232
   C        7.82687         4.23169         7.27644
   C        8.38283         3.62465         8.41387
   C        8.75681         2.30909         8.38591
   C        6.49254         0.35212         1.72940
   C        6.00912        -0.82519         1.09821
   C        5.53027        -0.91335        -0.19428
   C        5.08991        -2.18778        -0.56125
   C        4.50577        -2.46674        -1.90348
   C        5.18728        -3.09261         0.48809
   S        5.80926        -2.34070         1.92305
   C        4.85057        -4.48647         0.53187
   C        4.31591        -5.07344         1.69729
   C        3.94282        -6.45677         1.75411
   N        3.39444        -6.94578         2.88508
   C        3.22455        -6.17246         3.90524
   C        3.59941        -4.80173         3.84894
   N        4.11403        -4.29148         2.78103
   F        3.41697        -4.00204         4.89530
   F        2.67410        -6.69316         4.99702
   C        4.13624        -7.34528         0.67449
   C        4.73625        -6.77833        -0.47199
   C        5.07622        -5.37193        -0.54177
   N        5.66816        -5.07073        -1.69997
   S        5.77262        -6.38548        -2.60137
   N        5.07827        -7.41922        -1.59136
   C        3.78252        -8.71968         0.77275
   C        4.04571        -9.73257        -0.13645
   C        3.57309       -10.98251         0.25223
   C        3.77356       -12.23200        -0.53292
   C        2.94127       -10.94228         1.49536
   S        2.93250        -9.32758         2.15137
   C        2.29050       -12.01730         2.14465
   C        1.93197       -12.11751         3.45142
   C        0.85270       -13.05862         3.86096
   O        0.42025       -13.97869         3.20102
   C        0.41097       -12.57704         5.18254
   C        1.24794       -11.54306         5.60601
   C        2.30948       -11.35512         4.62384
   C        3.54278       -10.81625         4.87058
   C        4.62279       -10.94069         3.97045
   N        5.53639       -11.08012         3.28967
   C        3.90526       -10.17913         6.07439
   N        4.25448        -9.64761         7.02980
   C        1.01672       -10.88404         6.81958
   C       -0.04476       -11.28181         7.58989
   C       -0.90046       -12.33657         7.20138
   C       -0.67840       -13.00894         5.96423
   C       -1.53883       -14.05704         5.57923
   C       -2.57712       -14.42673         6.38907
   C       -2.80008       -13.76901         7.60929
   C       -1.98186       -12.74741         8.00706
   H        9.12531        -1.60871         6.01412
   H        9.38302        -0.26996         8.05610
   H        7.22573         3.97448         5.24257
   H        7.53729         5.27097         7.32072
   H        8.51267         4.20659         9.31435
   H        9.18470         1.83959         9.25985
   H        6.12496         1.28955         1.32209
   H        5.53223        -0.07450        -0.86786
   H        4.08025        -1.55434        -2.31468
   H        3.73072        -3.22632        -1.84271
   H        5.27951        -2.82614        -2.57915
   H        4.57641        -9.54606        -1.05189
   H        4.16973       -11.99872        -1.51719
   H        2.83642       -12.77567        -0.64493
   H        4.47897       -12.88470        -0.01914
   H        1.94905       -12.82860         1.50832
   H        1.65022       -10.06976         7.13230
   H       -0.24422       -10.78123         8.52640
   H       -1.35759       -14.55443         4.63950
   H       -3.23524       -15.23043         6.09414
   H       -3.62614       -14.07711         8.23316
   H       -2.15121       -12.24032         8.94600
*
