# ORCA input file
# SCF done       -216.392286650024          0.000729604370
! CAM-B3LYP def2-SVP def2/J RIJCOSX Grid4 TightSCF
%maxcore 5000
%tddft
    Mode sTDDFT
    Ethresh 5.0
    maxcore 5000
end

%pal
  nprocs 6
  end
* xyz 0 1
   C        9.10544         1.94981        -1.94248
   C        9.00053         2.04432        -3.42752
   O        8.71273         3.03624        -4.05949
   C        9.25827         0.67626        -3.91226
   C        9.63576        -0.13670        -2.84138
   C        9.71410         0.67357        -1.63194
   C       10.45928         0.39474        -0.51752
   C       10.77150         1.37144         0.45311
   N       11.10174         2.15819         1.22122
   C       11.07056        -0.84819        -0.26068
   N       11.55934        -1.84888         0.01719
   C        9.91128        -1.49581        -3.03714
   C        9.80606        -2.01178        -4.30249
   C        9.44109        -1.21501        -5.41019
   C        9.15629         0.16920        -5.22235
   C        8.79319         0.96022        -6.33128
   C        8.71692         0.40234        -7.57764
   C        8.99610        -0.96044        -7.76865
   C        9.34954        -1.75194        -6.71039
   C        8.54371         2.90296        -1.15968
   C        8.17614         2.82964         0.21117
   C        7.88855         3.90030         1.01246
   C        7.49508         3.57026         2.33174
   C        7.45806         2.14889         2.52115
   S        7.90517         1.31799         1.04506
   C        7.08262         1.54849         3.71040
   O        7.04564         0.23093         4.02762
   C        7.71300        -0.71890         3.22902
   C        6.66186         2.41571         4.74273
   C        6.68287         3.80909         4.55479
   C        7.12568         4.42546         3.38813
   O        7.11057         5.77757         3.43405
   C        7.83369         6.57138         2.52226
   S        6.12214         4.66315         5.95985
   C        5.86896         3.14779         6.79436
   C        6.20346         2.06361         6.03230
   C        5.35127         3.12050         8.13777
   C        4.88145         4.20928         8.79924
   C        4.35664         4.08333        10.12416
   C        3.85932         5.16617        10.82631
   C        3.34197         5.03401        12.12485
   N        2.91710         4.92448        13.18671
   C        3.84306         6.45903        10.27930
   N        3.83051         7.51621         9.82916
   C        4.38405         2.76331        10.67411
   C        4.88680         1.72694         9.95449
   O        5.36289         1.88042         8.69139
   C        4.99295         0.37645        10.44070
   C        5.62460        -0.66121         9.81440
   C        5.58573        -1.86201        10.55837
   C        4.89156        -1.70523        11.77309
   S        4.30888        -0.08184        11.98409
   C        4.71571        -2.72943        12.69464
   O        4.02453        -2.38515        13.80921
   C        4.20499        -3.06307        15.03247
   C        5.25123        -3.98416        12.34309
   C        5.98855        -4.13594        11.12234
   C        6.17625        -3.09949        10.22170
   O        6.84523        -3.09655         9.04377
   C        7.60404        -4.21127         8.63504
   S        6.54785        -5.78628        10.94990
   C        5.81939        -6.25489        12.46521
   C        5.16948        -5.20326        13.05418
   C        5.89649        -7.61310        12.86674
   C        5.66358        -8.17577        14.07998
   C        5.41026        -9.64631        14.14986
   O        5.64162       -10.44696        13.27179
   C        4.78756        -9.86834        15.46597
   C        4.79114        -8.67443        16.18871
   C        5.47708        -7.64500        15.41307
   C        6.04943        -6.51269        15.93076
   C        6.93308        -5.68564        15.20849
   N        7.67770        -4.99366        14.67503
   C        5.88504        -6.07173        17.25977
   N        5.76203        -5.64000        18.31626
   C        4.21897        -8.61178        17.46581
   C        3.66364        -9.74815        17.99404
   C        3.66032       -10.97634        17.29710
   C        4.23433       -11.05058        15.99422
   C        4.22798       -12.27805        15.30091
   C        3.67716       -13.38914        15.87746
   C        3.11075       -13.32212        17.16070
   C        3.10093       -12.14365        17.85527
   H       10.18857        -2.12615        -2.20755
   H       10.00830        -3.05957        -4.47185
   H        8.58045         2.00559        -6.17256
   H        8.44026         1.00904        -8.42685
   H        8.92917        -1.38003        -8.76149
   H        9.56582        -2.80052        -6.85532
   H        8.26251         3.81949        -1.66943
   H        7.97764         4.89962         0.63257
   H        8.75373        -0.43624         3.05089
   H        7.20647        -0.87728         2.27296
   H        7.68583        -1.64443         3.80284
   H        8.83143         6.16661         2.33661
   H        7.92367         7.54620         3.00173
   H        7.28974         6.69329         1.58076
   H        6.11427         1.04696         6.36613
   H        4.89542         5.17508         8.31946
   H        4.01352         2.59197        11.67232
   H        6.11314        -0.57662         8.86198
   H        3.96288        -2.33630        15.80831
   H        5.23687        -3.39704        15.16236
   H        3.51644        -3.90921        15.12357
   H        8.10191        -3.89511         7.71916
   H        6.97211        -5.07660         8.41935
   H        8.35741        -4.48211         9.37847
   H        4.58693        -5.33567        13.94559
   H        6.11081        -8.32312        12.07311
   H        4.20285        -7.68728        18.01996
   H        3.21260        -9.71603        18.97524
   H        4.66534       -12.31720        14.31581
   H        3.67426       -14.32964        15.34724
   H        2.68110       -14.21198        17.59625
   H        2.66623       -12.08999        18.84285
*
