# ORCA input file
# SCF done       -200.249005868009          0.000627149602
! CAM-B3LYP def2-SVP def2/J RIJCOSX Grid4 TightSCF
%maxcore 5000
%tddft
    Mode sTDDFT
    Ethresh 5.0
    maxcore 5000
end

%pal
  nprocs 6
  end
* xyz 0 1
   C        2.82722        -6.30321         9.82110
   C        2.78875        -6.89288        11.05359
   F        3.61983        -6.48542        12.02061
   C        1.87788        -7.93452        11.32286
   F        1.86349        -8.49410        12.53909
   C        1.01734        -8.37197        10.35511
   C        1.03344        -7.78483         9.07512
   C        1.95393        -6.73174         8.80129
   C        1.99062        -6.12879         7.52287
   C        1.13476        -6.56677         6.54660
   C        0.22075        -7.62019         6.83029
   C        0.15890        -8.22007         8.05496
   C       -0.56986        -7.91024         5.62336
   O       -1.45611        -8.73881         5.52113
   C       -0.06872        -7.00827         4.57749
   C        0.95217        -6.15231         5.15713
   C        1.62123        -5.12505         4.54563
   C        2.59597        -4.32754         5.18346
   N        3.39432        -3.64258         5.64246
   C        1.43870        -4.69896         3.21290
   N        1.34818        -4.28944         2.14367
   C       -0.46403        -7.01644         3.26659
   C       -1.41783        -7.81261         2.60790
   C       -1.62449        -7.70721         1.23110
   C       -2.59173        -8.58367         0.77646
   C       -3.15477        -9.36392         1.80346
   S       -2.46341        -9.02294         3.34133
   C       -4.11890       -10.24699         1.30615
   C       -4.27938       -10.14729        -0.08235
   S       -3.25045        -8.94042        -0.79928
   C       -5.21856       -11.03919        -0.60106
   C       -5.78534       -11.81208         0.38905
   S       -5.15937       -11.44378         1.97920
   C       -6.76789       -12.84627         0.21561
   C       -7.39507       -13.47894         1.24132
   C       -8.35257       -14.50917         0.98416
   C       -9.03136       -15.15772         1.99942
   C       -9.96863       -16.16852         1.73137
   N      -10.73281       -16.99397         1.49871
   C       -8.82478       -14.83455         3.35042
   N       -8.65372       -14.56483         4.45372
   C       -8.55539       -14.82796        -0.39485
   C       -7.88809       -14.15219        -1.36622
   O       -7.01371       -13.14758        -1.08840
   C       -8.01548       -14.42844        -2.77044
   C       -7.38186       -13.77023        -3.80081
   C       -7.70746       -14.32061        -5.04178
   C       -8.58964       -15.40594        -4.95652
   S       -9.02942       -15.74153        -3.32526
   C       -8.87451       -15.95244        -6.21057
   C       -8.21670       -15.27506        -7.24696
   S       -7.23559       -13.95744        -6.67542
   C       -8.48434       -15.79570        -8.51099
   C       -9.30564       -16.90406        -8.45287
   S       -9.81379       -17.26231        -6.80651
   C       -9.77970       -17.64533        -9.56605
   C      -10.25146       -18.91761        -9.60559
   C      -11.11230       -19.35082       -10.74438
   O      -11.26167       -18.77631       -11.79622
   C      -11.77661       -20.58264       -10.27310
   C      -12.76330       -21.30890       -10.87586
   C      -13.27401       -22.45090       -10.21938
   C      -12.75281       -22.81812        -8.94417
   C      -13.27266       -23.95485        -8.29287
   C      -14.26137       -24.69322        -8.88018
   C      -14.77562       -24.32961       -10.14155
   C      -14.29275       -23.23270       -10.79840
   F      -15.74566       -25.07050       -10.69202
   F      -14.75342       -25.77297        -8.26091
   C      -11.72568       -22.05196        -8.34754
   C      -11.24140       -20.95349        -9.00574
   C      -10.17886       -20.01439        -8.66042
   C       -9.14279       -20.27017        -7.80316
   C       -7.99023       -19.46065        -7.72029
   N       -7.02039       -18.84928        -7.66539
   C       -9.06880       -21.41765        -6.98680
   N       -8.97244       -22.32956        -6.29729
   H        3.53044        -5.50714         9.63241
   H        0.32629        -9.17015        10.57650
   H        2.70087        -5.33692         7.34943
   H       -0.54513        -9.01682         8.24076
   H        0.03321        -6.32145         2.60077
   H       -1.07821        -7.01983         0.61104
   H       -5.48065       -11.12022        -1.63899
   H       -7.17251       -13.20250         2.25983
   H       -9.24262       -15.61512        -0.66239
   H       -6.71712       -12.94035        -3.65345
   H       -8.07126       -15.41763        -9.42776
   H       -9.83912       -17.09742       -10.50202
   H      -13.14957       -21.01613       -11.84024
   H      -12.88807       -24.24913        -7.32891
   H      -14.69676       -22.96785       -11.76291
   H      -11.35376       -22.34465        -7.37846
*
