# ORCA input file
# SCF done       -271.554484047992          0.000779203336
! CAM-B3LYP def2-SVP def2/J RIJCOSX Grid4 TightSCF
%maxcore 5000
%tddft
    Mode sTDDFT
    Ethresh 5.0
    maxcore 5000
end

%pal
  nprocs 6
  end
* xyz 0 1
   C      -13.39921        -5.76246        -7.67025
   C      -14.12404        -6.65147        -8.41312
   F      -15.00810        -6.21002        -9.31814
   C      -13.95243        -8.03930        -8.23935
   F      -14.67613        -8.88833        -8.98251
   C      -13.05802        -8.51920        -7.32420
   C      -12.29531        -7.62841        -6.54445
   C      -12.46744        -6.22480        -6.71906
   C      -11.71073        -5.31092        -5.95013
   C      -10.80641        -5.78581        -5.03668
   C      -10.64103        -7.18868        -4.87214
   C      -11.35918        -8.09580        -5.59551
   C       -9.60823        -7.44021        -3.84882
   O       -9.24585        -8.52982        -3.45189
   C       -9.12524        -6.11473        -3.42663
   C       -9.89438        -5.10009        -4.12332
   C       -9.81841        -3.73975        -3.96440
   C       -8.97483        -3.05435        -3.06545
   N       -8.32983        -2.41609        -2.36055
   C      -10.60578        -2.81656        -4.68420
   N      -11.20909        -2.01239        -5.23903
   C       -8.09182        -5.87011        -2.56201
   C       -7.25031        -6.75290        -1.85916
   C       -6.21431        -6.27977        -1.06854
   C       -5.45303        -7.28552        -0.45951
   C       -5.93057        -8.57922        -0.80806
   S       -7.31961        -8.50476        -1.85685
   C       -5.30109        -9.74449        -0.39541
   C       -5.80447       -11.07127        -0.77250
   C       -4.95852       -12.01934        -1.34118
   C       -5.43765       -13.26768        -1.68868
   C       -6.76796       -13.60625        -1.47799
   C       -7.61178       -12.65390        -0.91726
   C       -7.14191       -11.40310        -0.57182
   C       -7.29521       -14.95469        -1.86128
   C       -4.14555        -9.59449         0.38992
   C       -3.66768        -8.29884         0.72949
   C       -4.30329        -7.13302         0.34997
   C       -3.83514        -5.80758         0.76779
   C       -2.50357        -5.43435         0.61420
   C       -2.07353        -4.18641         1.02361
   C       -2.95293        -3.28173         1.60325
   C       -4.28264        -3.66016         1.76127
   C       -4.72129        -4.90118         1.34865
   C       -2.49676        -1.92920         2.05450
   S       -2.22818        -8.40016         1.71054
   C       -2.27827       -10.15664         1.66994
   C       -3.34706       -10.61582         0.95366
   C       -1.24176       -10.91869         2.30793
   C       -0.17861       -10.30213         2.94563
   C        0.87432       -11.01038         3.51825
   C        0.94669       -12.39283         3.50535
   C       -0.14226       -13.08199         2.89330
   C       -1.23298       -12.34540         2.29042
   N       -2.16859       -13.11413         1.75025
  Se       -1.74745       -14.79632         1.96444
   N       -0.26740       -14.39914         2.80447
   C        2.07375       -13.09113         4.05820
   C        2.28053       -14.43921         4.13514
   C        3.52374       -14.79771         4.70448
   C        4.30036       -13.66112         5.04737
   S        3.43496       -12.18747         4.70517
   C        5.56292       -13.74670         5.60943
   C        6.31300       -12.56264         6.04240
   C        6.84016       -12.50066         7.33110
   C        7.53391       -11.38267         7.74853
   C        7.72840       -10.30092         6.89641
   C        7.20126       -10.36752         5.61274
   C        6.49873       -11.47898         5.18916
   C        8.46746        -9.08600         7.36472
   C        6.08758       -15.04415         5.77055
   C        5.30981       -16.18021         5.42301
   C        4.02264       -16.09525         4.92268
   C        3.20006       -17.28481         4.67199
   C        1.91397       -17.36844         5.20122
   C        1.14439       -18.49556         4.99537
   C        1.62975       -19.56825         4.25616
   C        2.91174       -19.48015         3.72804
   C        3.69011       -18.35733         3.93320
   C        0.79971       -20.79889         4.06047
   S        6.17058       -17.65943         5.74727
   C        7.57098       -16.76100         6.31542
   C        7.36982       -15.40600         6.23281
   C        8.77985       -17.39663         6.69386
   C        8.97209       -18.68999         7.06842
   C       10.31579       -19.31443         6.94788
   O       11.37305       -18.74840         6.79417
   C       10.06261       -20.77168         6.98661
   C       10.93688       -21.79964         6.78250
   C       10.45853       -23.12859         6.83201
   C        9.07773       -23.36687         7.09316
   C        8.60746       -24.69490         7.13166
   C        9.46657       -25.73676         6.92252
   C       10.83164       -25.50013         6.66575
   C       11.31871       -24.22397         6.62207
   F       11.65152       -26.54106         6.46238
   F        9.01621       -26.99852         6.95866
   C        8.19726       -22.28267         7.31208
   C        8.68431       -21.00458         7.26226
   C        8.03448       -19.71533         7.47389
   C        6.87849       -19.50711         8.17901
   C        6.48040       -18.23011         8.62948
   N        6.17524       -17.21398         9.06761
   C        6.03055       -20.54373         8.61445
   N        5.30287       -21.35762         8.96887
   H      -13.54315        -4.70321        -7.81571
   H      -12.93778        -9.58435        -7.20294
   H      -11.86496        -4.25626        -6.10949
   H      -11.21195        -9.15478        -5.44713
   H       -7.84320        -4.83027        -2.38553
   H       -6.00593        -5.22908        -0.96501
   H       -3.92577       -11.76717        -1.53326
   H       -4.76665       -13.98981        -2.13218
   H       -8.65053       -12.89848        -0.74822
   H       -7.80943       -10.68316        -0.12258
   H       -6.48353       -15.65541        -2.04077
   H       -7.88854       -14.87745        -2.77264
   H       -7.93884       -15.35271        -1.07903
   H       -1.80737        -6.11677         0.14966
   H       -1.03725        -3.91185         0.88816
   H       -4.97995        -2.97087         2.21538
   H       -5.75211        -5.18733         1.50000
   H       -1.43723        -1.78781         1.85773
   H       -2.67200        -1.80810         3.12289
   H       -3.05501        -1.14978         1.53740
   H       -3.55609       -11.66266         0.84265
   H       -0.15757        -9.22289         2.98778
   H        1.67599       -10.45583         3.98394
   H        1.56596       -15.15300         3.77166
   H        6.67962       -13.32390         8.01212
   H        7.93071       -11.34625         8.75299
   H        7.34437        -9.53896         4.93409
   H        6.11211       -11.51897         4.18160
   H        9.28488        -9.36139         8.02754
   H        7.79298        -8.43282         7.91946
   H        8.86659        -8.52394         6.52394
   H        1.52962       -16.55453         5.79819
   H        0.15156       -18.54699         5.41899
   H        3.30622       -20.30150         3.14703
   H        4.67691       -18.30156         3.49721
   H       -0.25885       -20.55173         4.02353
   H        0.95533       -21.48498         4.89381
   H        1.07648       -21.31449         3.14390
   H        8.12272       -14.69110         6.51376
   H        9.67961       -16.79896         6.58488
   H       11.97936       -21.60306         6.58330
   H        7.56595       -24.89366         7.33046
   H       12.36636       -24.05967         6.42423
   H        7.15529       -22.48644         7.50208
*
