# ORCA input file
# SCF done       -213.548929099975          0.000536270525
! CAM-B3LYP def2-SVP def2/J RIJCOSX Grid4 TightSCF
%maxcore 5000
%tddft
    Mode sTDDFT
    Ethresh 5.0
    maxcore 5000
end

%pal
  nprocs 6
  end
* xyz 0 1
   C      -14.93875        -6.51028        -3.80788
   C      -16.08826        -6.08115        -3.20550
   F      -17.21937        -5.97019        -3.91478
   C      -16.09982        -5.75091        -1.83577
   F      -17.24084        -5.33288        -1.27067
   C      -14.96113        -5.85474        -1.08678
   C      -13.76129        -6.29393        -1.67857
   C      -13.74770        -6.62689        -3.06390
   C      -12.55390        -7.06905        -3.68025
   C      -11.41012        -7.17273        -2.93399
   C      -11.43494        -6.84278        -1.55034
   C      -12.57125        -6.41618        -0.92695
   C      -10.09927        -7.07233        -0.97125
   O       -9.79686        -6.97959         0.20520
   C       -9.25057        -7.53996        -2.07944
   C      -10.05394        -7.58790        -3.28577
   C       -9.62094        -7.89211        -4.54991
   C       -8.29289        -8.21275        -4.90338
   N       -7.23530        -8.46246        -5.27419
   C      -10.45419        -7.89749        -5.68853
   N      -11.07994        -7.92268        -6.65047
   C       -7.96617        -8.00848        -1.95109
   C       -7.09077        -7.85862        -0.86431
   C       -6.97868        -6.90981         0.14772
   C       -5.87532        -7.11130         1.01717
   C       -5.71811        -6.00016         1.88904
   C       -6.65015        -5.02355         1.72290
   S       -7.80947        -5.43997         0.48215
   C       -6.75307        -3.74200         2.46373
   F       -4.68590        -5.85387         2.73572
   C       -5.15701        -8.27059         0.71828
   S       -5.74712        -8.98841        -0.74250
   C       -4.13353        -8.90227         1.47465
   C       -3.17030        -9.73563         0.86265
   C       -2.10989       -10.36392         1.59806
   N       -1.21388       -11.11610         0.93280
   C       -1.32996       -11.27212        -0.34862
   C       -2.38583       -10.65979        -1.07075
   N       -3.25905        -9.91753        -0.47001
   F       -2.50380       -10.82714        -2.38117
   F       -0.42488       -12.02388        -0.96609
   C       -2.00083       -10.23532         3.00391
   C       -3.02120        -9.47352         3.62263
   C       -4.06253        -8.81193         2.88093
   N       -4.93519        -8.21307         3.69095
   S       -4.47501        -8.40438         5.20907
   N       -3.16333        -9.29489         4.93460
   C       -0.97585       -10.81116         3.79373
   C        0.20809       -11.46268         3.46056
   C        1.00075       -11.82300         4.57878
   C        2.20963       -12.44181         4.17353
   C        2.35011       -12.55787         2.82642
   S        0.96295       -11.91075         1.97265
   C        3.48861       -13.15113         2.08511
   F        3.12857       -12.88169         5.04837
   C        0.43969       -11.45291         5.80390
   S       -1.10238       -10.68115         5.52778
   C        0.95312       -11.73174         7.08186
   C        0.52182       -11.25736         8.28958
   C        0.79401       -12.03907         9.52574
   O        1.59644       -12.93171         9.66370
   C       -0.18239       -11.53493        10.51685
   C       -0.44429       -11.99646        11.77422
   C       -1.45649       -11.37221        12.53826
   C       -2.18356       -10.28113        11.97924
   C       -3.19704        -9.66946        12.74395
   C       -3.47312       -10.11638        14.00552
   C       -2.75195       -11.19348        14.55852
   C       -1.76462       -11.80914        13.84130
   F       -3.04467       -11.61125        15.79740
   F       -4.43662        -9.53238        14.73036
   C       -1.88390        -9.81871        10.67725
   C       -0.89357       -10.43336         9.96008
   C       -0.34316       -10.15310         8.63691
   C       -0.42003        -8.94708         7.98806
   C        0.39911        -8.61242         6.88939
   N        1.09552        -8.29140         6.03530
   C       -1.27379        -7.89866         8.37771
   N       -1.98552        -7.03427         8.63253
   H      -14.94738        -6.75850        -4.85774
   H      -14.98658        -5.59932        -0.03900
   H      -12.57930        -7.31913        -4.72840
   H      -12.56180        -6.17493         0.12503
   H       -7.56447        -8.60389        -2.76162
   H       -5.91548        -3.64309         3.15017
   H       -7.68245        -3.70547         3.03119
   H       -6.75138        -2.90063         1.77212
   H        4.20613       -13.57863         2.78164
   H        3.98709       -12.38954         1.48585
   H        3.13653       -13.92742         1.40733
   H        1.72901       -12.48997         7.13040
   H        0.11230       -12.82647        12.18194
   H       -3.75582        -8.84114        12.33718
   H       -1.22215       -12.63247        14.27897
   H       -2.45113        -8.99510        10.27357
*
