# ORCA input file
# SCF done       -248.321797117010          0.000422782394
! CAM-B3LYP def2-SVP def2/J RIJCOSX Grid4 TightSCF
%maxcore 5000
%tddft
    Mode sTDDFT
    Ethresh 5.0
    maxcore 5000
end

%pal
  nprocs 6
  end
* xyz 0 1
   C       11.56793         6.77881         7.99277
   C       10.24460         6.50193         8.18021
   C        9.70084         6.11583         9.48339
   O       10.35207         6.07888        10.50421
   C        8.26718         5.75095         9.41763
   C        7.50317         5.87129         8.22466
   C        6.20343         5.46252         8.40953
   S        5.89019         4.92836        10.01341
   C        7.51639         5.25681        10.45724
   C        7.96551         4.97648        11.85821
   F        8.36432         6.07389        12.50484
   F        6.95706         4.45701        12.58301
   F        8.96001         4.08608        11.91001
   C        5.09816         5.41890         7.40005
   F        4.74851         6.62699         6.95294
   F        5.39451         4.65989         6.34080
   F        3.98675         4.88491         7.94259
   C        8.05583         6.37657         6.94777
   O        7.33399         6.56702         5.97868
   C        9.47594         6.61052         6.97636
   C       10.26371         6.95142         5.87160
   S       11.93645         7.15086         6.36962
   C        9.96574         7.08432         4.50103
   C       10.94292         7.21780         3.50465
   C       10.41000         7.24415         2.23733
   C        9.00668         7.16244         2.25378
   S        8.34437         7.03164         3.82462
   C        8.54512         7.09520         0.92512
   C        9.64222         7.11269         0.05151
   C       10.93518         7.26878         0.81949
   C       11.61079         8.60498         0.49677
   C       11.88899         6.10208         0.55373
   C        9.27974         6.91084        -1.26578
   C        7.90356         6.74397        -1.41561
   S        7.05141         6.89893         0.11229
   C        7.17406         6.32579        -2.55949
   C        7.75883         5.81696        -3.74511
   C        6.97783         5.08876        -4.70760
   N        7.58290         4.54928        -5.78364
   C        8.85616         4.70690        -5.95147
   C        9.62222         5.43698        -5.01048
   N        9.08387         5.95663        -3.95516
   F       10.93282         5.61755        -5.18155
   F        9.41606         4.17065        -7.03282
   C        5.58944         4.85628        -4.56243
   C        4.97244         5.55206        -3.49473
   C        5.76133         6.25286        -2.51326
   N        5.00269         6.78009        -1.55458
   S        3.46161         6.45111        -1.85368
   N        3.67247         5.60660        -3.20442
   C        4.91215         3.87234        -5.32403
   C        3.57065         3.51160        -5.20058
   C        3.27591         2.34821        -5.88045
   C        4.39040         1.81156        -6.54373
   S        5.79862         2.77945        -6.36735
   C        4.03764         0.54821        -7.05997
   C        2.70592         0.26994        -6.72754
   C        2.08292         1.42949        -5.99032
   C        1.58658         0.99453        -4.60904
   C        0.94990         2.06956        -6.79759
   C        2.32133        -1.01974        -7.04756
   C        3.35278        -1.74908        -7.61987
   S        4.80924        -0.77736        -7.82109
   C        3.38974        -3.11762        -7.99281
   C        2.74973        -4.22494        -7.43642
   C        1.92963        -4.22126        -6.23649
   O        1.58772        -3.23561        -5.61068
   C        1.53272        -5.58029        -5.78671
   C        1.83989        -6.77436        -6.49289
   C        1.33216        -7.88596        -5.86428
   S        0.48456        -7.51033        -4.41870
   C        0.80492        -5.83666        -4.64872
   C        0.29688        -4.85767        -3.63577
   F        1.27197        -4.15184        -3.05705
   F       -0.58785        -3.99303        -4.14100
   F       -0.33999        -5.50099        -2.63838
   C        1.45136        -9.31589        -6.29330
   F        2.71895        -9.73311        -6.34759
   F        0.82554       -10.12528        -5.41848
   F        0.89249        -9.54758        -7.48297
   C        2.63935        -6.77463        -7.73906
   O        2.89335        -7.77826        -8.36738
   C        3.11165        -5.43818        -8.10666
   C        3.99825        -5.23926        -9.12761
   S        4.43670        -3.60182        -9.30561
   H       12.33468         6.76798         8.74253
   H       11.99217         7.26019         3.73869
   H       10.92810         9.42947         0.68800
   H       11.90352         8.62923        -0.54962
   H       12.49644         8.73409         1.11379
   H       11.40581         5.15726         0.79127
   H       12.78204         6.20141         1.16544
   H       12.17960         6.09111        -0.49340
   H        9.94964         6.85696        -2.10221
   H        2.88763         4.08148        -4.59917
   H        2.40194         0.56296        -4.03379
   H        0.80657         0.24530        -4.71227
   H        1.19049         1.85029        -4.06869
   H        1.30509         2.36645        -7.78174
   H        0.57853         2.95028        -6.28021
   H        0.13447         1.36108        -6.91773
   H        1.34717        -1.43049        -6.86801
   H        4.41357        -5.99570        -9.76452
*
