# ORCA input file
# SCF done       -273.321076197004          0.000755919515
! CAM-B3LYP def2-SVP def2/J RIJCOSX Grid4 TightSCF
%maxcore 5000
%tddft
    Mode sTDDFT
    Ethresh 5.0
    maxcore 5000
end

%pal
  nprocs 6
  end
* xyz 0 1
   C        4.70324         8.93742        -4.01852
   C        5.90387         8.58850        -3.45391
   C        7.12246         8.52911        -4.16232
   N        8.15044         8.46380        -4.66981
   C        6.11696         8.22546        -2.10810
   N        6.38514         7.90812        -1.03654
   C        4.50544         9.27434        -5.42475
   C        3.12181         9.53217        -5.63988
   C        2.62814         9.86337        -6.86821
   C        3.51540         9.95572        -7.96382
   C        4.90265         9.70561        -7.75792
   C        5.38331         9.36396        -6.47266
   C        5.77994         9.80238        -8.85713
   C        5.31099        10.12764       -10.10084
   C        3.94444        10.37164       -10.30264
   C        3.06582        10.28814        -9.25661
   C        2.39577         9.37863        -4.36936
   O        1.20155         9.53139        -4.19962
   C        3.40986         9.01548        -3.36136
   C        3.18293         8.80401        -2.02996
   C        1.98552         8.81908        -1.28519
   C        1.98392         8.55424         0.07506
   C        0.71146         8.56962         0.66142
   C       -0.29219         8.89440        -0.29334
   S        0.37113         9.12876        -1.88840
   C       -1.63761         8.96751         0.03389
   C       -2.67268         9.25373        -0.96507
   C       -3.80081         8.44132        -1.07089
   C       -4.78469         8.72547        -1.99553
   C       -4.67576         9.82511        -2.84007
   C       -3.54415        10.62478        -2.74166
   C       -2.55294        10.34495        -1.82119
   C       -5.74811        10.12002        -3.84252
   C       -1.97196         8.73886         1.38312
   C       -0.96386         8.43567         2.34042
   C        0.37245         8.32228         2.01256
   C        1.38989         7.93911         2.99789
   C        2.27157         6.89207         2.73417
   C        3.22251         6.52629         3.66457
   C        3.32715         7.19310         4.88113
   C        2.44362         8.23174         5.14274
   C        1.48414         8.59982         4.21877
   C        4.37469         6.79086         5.87254
   S       -1.65309         8.18986         3.92842
   C       -3.26626         8.46864         3.30427
   C       -3.25427         8.76910         1.96392
   C       -4.39617         8.35619         4.16997
   C       -5.73672         8.31025         3.72557
   C       -6.83097         8.17031         4.64857
   N       -8.09368         8.12558         4.17630
   C       -8.31079         8.19612         2.90451
   C       -7.23043         8.31230         1.99459
   N       -6.00579         8.36659         2.40279
   F       -7.44232         8.36273         0.67820
   F       -9.57081         8.14825         2.47853
   C       -6.65813         8.06855         6.04570
   C       -5.31936         8.11493         6.49432
   C       -4.22065         8.24419         5.56608
   N       -3.04338         8.25315         6.19121
   S       -3.28108         8.11779         7.77035
   N       -4.88428         8.04046         7.75430
   C       -7.76818         7.91055         6.92810
   C       -7.71172         7.82306         8.29974
   C       -8.96862         7.64894         8.90932
   C      -10.01299         7.56486         7.94957
   S       -9.40065         7.77410         6.32403
   C      -11.33858         7.37312         8.29601
   C      -12.40853         7.34544         7.29338
   C      -12.29077         6.55462         6.15239
   C      -13.29460         6.53745         5.20562
   C      -14.44000         7.30985         5.36311
   C      -14.55213         8.10121         6.49929
   C      -13.55458         8.12097         7.45402
   C      -15.51184         7.30222         4.31736
   C      -11.61576         7.22166         9.67275
   C      -10.56552         7.30317        10.63057
   C       -9.24541         7.53823        10.28732
   C       -8.18799         7.68871        11.29325
   C       -8.02582         6.74892        12.30851
   C       -7.03426         6.90650        13.25539
   C       -6.18200         8.00521        13.22464
   C       -6.34940         8.94285        12.21385
   C       -7.33548         8.78929        11.25862
   C       -5.10918         8.15856        14.25808
   S      -11.17559         7.10745        12.24806
   C      -12.81842         6.89371        11.64312
   C      -12.86444         6.97013        10.27034
   C      -13.81171         6.62030        12.60886
   C      -15.17499         6.59090        12.50718
   C      -16.05179         6.21915        13.60675
   C      -15.69383         5.55966        14.75441
   C      -16.59993         5.21559        15.77919
   N      -17.28333         4.91331        16.65100
   C      -14.40194         5.08746        15.06932
   N      -13.39490         4.64407        15.39949
   C      -17.41364         6.58869        13.24146
   C      -17.39942         7.08993        11.91019
   C      -16.02108         7.07551        11.38842
   O      -15.68332         7.42712        10.27682
   C      -18.53728         7.50600        11.28178
   C      -19.76788         7.44186        11.97279
   C      -19.79028         6.94866        13.30906
   C      -18.59458         6.52333        13.93241
   C      -21.02296         6.89126        13.99061
   C      -22.17893         7.29958        13.38292
   C      -22.15564         7.78491        12.06697
   C      -20.97584         7.85419        11.37696
   H        1.57313        10.05136        -7.00200
   H        6.43916         9.18130        -6.35281
   H        6.83123         9.61284        -8.69701
   H        5.99103        10.19823       -10.93654
   H        3.59133        10.62601       -11.29085
   H        2.01234        10.47514        -9.40557
   H        4.04831         8.57554        -1.41894
   H        2.89053         8.36324         0.62233
   H       -3.89239         7.57046        -0.43866
   H       -5.65501         8.08874        -2.06048
   H       -3.43879        11.48258        -3.39025
   H       -1.69241        10.99259        -1.74574
   H       -6.73224         9.93143        -3.41867
   H       -5.63027         9.47525        -4.71406
   H       -5.69729        11.15366        -4.17597
   H        2.18896         6.34704         1.80492
   H        3.89629         5.70989         3.44718
   H        2.50719         8.76282         6.08171
   H        0.81588         9.41984         4.43464
   H        5.36857         6.96162         5.45981
   H        4.29111         5.73021         6.10532
   H        4.27995         7.35946         6.79405
   H       -4.14685         9.01341         1.42166
   H       -6.78384         7.86645         8.83889
   H      -11.41915         5.93108         6.02196
   H      -13.18998         5.91368         4.32959
   H      -15.43268         8.71053         6.64201
   H      -13.65543         8.75795         8.31971
   H      -15.65764         6.29974         3.92023
   H      -15.22567         7.95077         3.48868
   H      -16.45407         7.66331         4.72225
   H       -8.66648         5.88036        12.34155
   H       -6.91776         6.16605        14.03350
   H       -5.70308         9.80831        12.17565
   H       -7.46709         9.54094        10.49406
   H       -5.52350         8.04166        15.25798
   H       -4.63414         9.13375        14.18688
   H       -4.34576         7.39216        14.12392
   H      -13.77045         6.83313         9.71090
   H      -13.40117         6.43018        13.59435
   H      -18.49839         7.87988        10.26923
   H      -18.64509         6.16068        14.94661
   H      -21.03592         6.51534        15.00317
   H      -23.11824         7.25060        13.91316
   H      -23.07713         8.10340        11.60278
   H      -20.95173         8.22659        10.36315
*
