# ORCA input file
# SCF done       -155.731464328083          0.000568031692
! CAM-B3LYP def2-SVP def2/J RIJCOSX Grid4 TightSCF
%maxcore 5000
%tddft
    Mode sTDDFT
    Ethresh 5.0
    maxcore 5000
end

%pal
  nprocs 6
  end
* xyz 0 1
   C        1.30445         1.62360        -1.78334
   C        2.07655         2.65032        -2.25775
   C        2.52194         2.74016        -3.59120
   N        2.89399         2.85798        -4.67062
   C        2.58274         3.66814        -1.42250
   N        3.04513         4.47670        -0.75196
   C        0.98936         0.39141        -2.49587
   C        0.67857        -0.61579        -1.53494
   C        0.36493        -1.89000        -1.91085
   C        0.33339        -2.21457        -3.28604
   C        0.63215        -1.20870        -4.25051
   C        0.96569         0.10041        -3.83247
   C        0.58703        -1.54554        -5.61851
   C        0.26262        -2.81363        -6.01733
   C       -0.03170        -3.80302        -5.06738
   C        0.00456        -3.51023        -3.73110
   C        0.72989        -0.03373        -0.18108
   O        0.58999        -0.59211         0.88196
   C        0.91209         1.43099        -0.40297
   C        0.55542         2.29821         0.57974
   C        0.16712         3.65723         0.49353
   C       -0.08115         4.47862         1.57839
   C       -0.59354         5.71449         1.19300
   C       -0.76208         5.85345        -0.19022
   S       -0.26657         4.43302        -1.02610
   C       -1.32000         7.07486        -0.57581
   C       -1.59899         7.87206         0.50977
   S       -1.14711         7.12062         2.02886
   C       -2.25751         9.14845         0.49659
   C       -2.94531         9.65057         1.61252
   N       -3.66097        10.74667         1.56712
   C       -3.71090        11.40513         0.40595
   N       -3.01269        11.07623        -0.68494
   C       -2.30179         9.97559        -0.63789
   C       -4.60939        12.52128         0.32391
   C       -4.77732        13.38552        -0.73449
   C       -5.81684        14.28285        -0.48854
   C       -6.44851        14.09103         0.75351
   S       -5.71144        12.80576         1.64285
   C       -7.53520        14.93201         0.97793
   C       -7.75589        15.78382        -0.08861
   S       -6.55799        15.56092        -1.36947
   C       -8.73922        16.77227        -0.32161
   C       -9.95695        16.95676         0.26651
   C      -10.88042        18.01695        -0.11124
   C      -10.55338        19.19993        -0.71856
   C      -11.49183        20.20433        -1.03599
   N      -12.20992        21.05305        -1.32182
   C       -9.24340        19.60108        -1.05783
   N       -8.20568        20.00523        -1.33697
   C      -12.20793        17.63848         0.35358
   C      -12.08753        16.45290         1.13177
   C      -10.67679        16.03001         1.17875
   O      -10.23324        15.10118         1.81962
   C      -13.17104        15.85207         1.70464
   C      -14.45205        16.41545         1.51110
   C      -14.58242        17.59760         0.72614
   C      -13.44004        18.20231         0.15301
   C      -15.86714        18.14473         0.53227
   C      -16.97057        17.55441         1.08570
   C      -16.84085        16.39090         1.85864
   C      -15.60825        15.83435         2.06785
   H        0.13839        -2.64157        -1.16926
   H        1.17862         0.84863        -4.58041
   H        0.81695        -0.78117        -6.34617
   H        0.23082        -3.06144        -7.06772
   H       -0.28765        -4.79798        -5.39954
   H       -0.22099        -4.26794        -2.99500
   H        0.43654         1.85320         1.56354
   H        0.11216         4.18424         2.59348
   H       -1.53634         7.34764        -1.59185
   H       -2.92605         9.12712         2.56085
   H       -1.73658         9.73901        -1.52982
   H       -4.17690        13.34348        -1.62336
   H       -8.14466        14.92077         1.86109
   H       -8.49385        17.43418        -1.14519
   H      -13.05263        14.95455         2.29346
   H      -13.57113        19.09188        -0.44257
   H      -15.96206        19.04126        -0.06260
   H      -17.95028        17.98078         0.93045
   H      -17.72229        15.93764         2.28699
   H      -15.50181        14.93850         2.66201
*
