# ORCA input file
# SCF done       -195.840356537546          0.000858718842
! CAM-B3LYP def2-SVP def2/J RIJCOSX Grid4 TightSCF
%maxcore 5000
%tddft
    Mode sTDDFT
    Ethresh 5.0
    maxcore 5000
end

%pal
  nprocs 6
  end
* xyz 0 1
   C        0.44179         1.21059         0.31427
   C        1.17413         2.06433        -0.47300
   C        1.83314         1.67387        -1.65563
   N        2.36152         1.42551        -2.64451
   C        1.41573         3.41630        -0.16318
   N        1.66151         4.51830         0.04674
   C        0.39716        -0.24047         0.15421
   C       -0.04729        -0.81791         1.37925
   C       -0.15708        -2.16876         1.53805
   C        0.16889        -3.01877         0.45670
   C        0.60253        -2.44761        -0.77433
   C        0.71282        -1.04402        -0.90772
   C        0.92060        -3.30562        -1.84638
   C        0.81689        -4.66334        -1.71103
   C        0.38896        -5.22486        -0.49899
   C        0.07280        -4.42014         0.56200
   C       -0.35187         0.25769         2.33961
   O       -0.70288         0.15335         3.49274
   C       -0.19614         1.52578         1.57130
   C       -0.71576         2.67267         2.09681
   C       -1.05640         3.87985         1.45439
   C       -1.29025         4.13189         0.10501
   C       -1.64345         5.44613        -0.13305
   C       -1.67954         6.21858         1.03373
   S       -1.31575         5.31387         2.43463
   C       -2.00520         7.55058         0.68725
   C       -2.17621         7.63192        -0.69537
   C       -1.94920         6.28897        -1.34742
   C       -3.20108         5.80073        -2.08071
   C       -0.74225         6.32845        -2.29059
   C       -2.50301         8.91246        -1.11868
   C       -2.57856         9.80688        -0.06386
   S       -2.24068         9.05463         1.47550
   C       -2.89084        11.20339        -0.15107
   C       -2.89883        12.05784         0.90695
   C       -3.21283        13.43951         0.72350
   C       -3.22959        14.33904         1.77579
   C       -3.53537        15.69506         1.58146
   N       -3.78558        16.80349         1.41129
   C       -2.94097        13.94227         3.09071
   N       -2.71114        13.60880         4.16600
   C       -3.50724        13.83264        -0.61824
   C       -3.48427        12.92140        -1.62740
   O       -3.18199        11.61081        -1.41723
   C       -3.76908        13.22484        -2.99958
   C       -3.79806        12.32766        -4.05449
   C       -4.09917        12.94732        -5.25940
   C       -4.29826        14.32187        -5.12045
   S       -4.12114        14.85967        -3.50172
   C       -4.58413        14.87829        -6.38849
   C       -4.56762        13.85275        -7.34475
   C       -4.26459        12.52147        -6.69880
   C       -5.43641        11.54867        -6.86233
   C       -2.97540        11.91383        -7.25841
   C       -4.82278        14.30046        -8.62582
   C       -5.03498        15.67599        -8.67435
   S       -4.92318        16.40502        -7.06744
   C       -5.32678        16.56088        -9.72825
   C       -5.39924        16.37482       -11.08368
   C       -5.72926        17.44384       -12.01500
   C       -6.27052        18.66730       -11.71387
   C       -6.57317        19.65263       -12.67754
   N       -6.84280        20.49905       -13.40491
   C       -6.64726        19.12036       -10.43174
   N       -7.00515        19.56190        -9.43322
   C       -5.45349        16.96469       -13.36425
   C       -5.06646        15.59830       -13.28347
   C       -5.06006        15.16832       -11.87516
   O       -4.81285        14.04427       -11.48347
   C       -4.75657        14.86702       -14.39370
   C       -4.81358        15.48486       -15.66279
   C       -5.19075        16.85571       -15.75230
   C       -5.51045        17.58528       -14.58404
   C       -5.23986        17.46449       -17.02281
   C       -4.93291        16.75466       -18.15169
   C       -4.56218        15.40468       -18.06236
   C       -4.50394        14.78328       -16.84441
   H       -0.48878        -2.58570         2.47728
   H        1.03533        -0.63897        -1.85426
   H        1.25293        -2.86866        -2.77667
   H        1.06481        -5.31224        -2.53761
   H        0.31114        -6.29807        -0.40993
   H       -0.25662        -4.84704         1.49795
   H       -0.96193         2.61120         3.15307
   H       -1.24010         3.36493        -0.64679
   H       -4.05283         5.77850        -1.40460
   H       -3.03821         4.79901        -2.47004
   H       -3.43057         6.46487        -2.91009
   H        0.15148         6.62315        -1.74621
   H       -0.91715         7.03823        -3.09515
   H       -0.57257         5.34444        -2.72007
   H       -2.67808         9.20775        -2.13655
   H       -2.66187        11.69266         1.89373
   H       -3.75158        14.86180        -0.82912
   H       -3.60665        11.27891        -3.92266
   H       -6.34909        11.98361        -6.46146
   H       -5.22997        10.62138        -6.33367
   H       -5.58868        11.32773        -7.91537
   H       -2.14406        12.60276        -7.12812
   H       -3.09423        11.70828        -8.31883
   H       -2.74393        10.98526        -6.74259
   H       -4.85389        13.68938        -9.50888
   H       -5.49981        17.57427        -9.38445
   H       -4.46949        13.82971       -14.30425
   H       -5.78742        18.62215       -14.68699
   H       -5.52704        18.50379       -17.08665
   H       -4.97430        17.22982       -19.12033
   H       -4.32276        14.85972       -18.96328
   H       -4.21892        13.74396       -16.76936
*
