# ORCA input file
# SCF done       -260.640485821613          0.000494257543
! CAM-B3LYP def2-SVP def2/J RIJCOSX Grid4 TightSCF
%maxcore 5000
%tddft
    Mode sTDDFT
    Ethresh 5.0
    maxcore 5000
end

%pal
  nprocs 6
  end
* xyz 0 1
   C        3.11950         3.31037         7.08139
   C        2.82418         1.99365         6.84654
   C        3.32402         0.92575         7.62237
   N        3.69028         0.01301         8.21447
   C        2.03441         1.49522         5.78774
   N        1.43245         0.99908         4.94470
   C        4.03206         3.79422         8.10891
   C        4.23859         5.18684         7.90448
   C        5.05941         5.92178         8.71064
   C        5.71835         5.28523         9.78568
   C        5.51120         3.89220        10.00205
   C        4.65912         3.15675         9.14683
   C        6.17047         3.26716        11.08009
   C        6.99501         3.98175        11.90569
   C        7.19785         5.35341        11.69207
   C        6.57367         5.99103        10.65450
   C        3.45003         5.64194         6.74679
   O        3.46963         6.76055         6.27658
   C        2.65804         4.46105         6.31367
   C        1.58732         4.40908         5.46897
   C        0.99051         5.39743         4.65088
   C        1.36881         6.67369         4.31723
   C        0.48191         7.31877         3.43213
   C        0.61619         8.60708         2.86550
   C        1.67984         9.51063         3.24617
   C        2.37159        10.37982         2.44784
   C        3.30778        11.14821         3.16843
   C        3.33361        10.89507         4.51117
   S        2.18428         9.66914         4.90662
   C        4.18080        11.51923         5.55814
  Cl        4.32803        12.30695         2.40708
   C       -0.34526         8.97477         1.93022
   C       -1.43835         8.14259         1.56978
   C       -1.57911         6.86012         2.13969
   C       -0.60754         6.48423         3.06201
   S       -0.51110         4.94117         3.84925
   C       -2.65000         5.95539         1.77637
   C       -3.33325         5.09616         2.58920
   C       -4.27134         4.30904         1.88762
   C       -4.30968         4.53897         0.54279
   S       -3.16887         5.76962         0.12128
   C       -5.15429         3.88918        -0.49024
  Cl       -5.27686         3.15771         2.67859
   C       -2.30738         8.78642         0.66131
   C       -1.89448        10.04206         0.31290
   S       -0.41062        10.50817         1.10015
   C       -2.52102        10.92797        -0.60033
   N       -2.02106        12.06152        -0.98612
   C       -2.82026        12.65768        -1.87020
   C       -4.00826        11.98120        -2.19640
   S       -4.09479        10.50295        -1.32739
   N       -4.80184        12.57039        -3.08958
   C       -4.28851        13.69006        -3.49832
   S       -2.71984        14.12103        -2.76420
   C       -4.88074        14.52916        -4.47574
   C       -4.34608        15.65170        -5.04279
   C       -5.17692        16.23518        -6.02569
   C       -4.90886        17.35856        -6.83407
   C       -3.64918        18.07198        -6.79021
   C       -3.43966        19.41475        -6.93116
   C       -2.07241        19.76166        -6.89928
   C       -1.22192        18.70465        -6.75051
   S       -2.12582        17.23419        -6.63340
   C        0.26095        18.70250        -6.68440
  Cl       -1.53701        21.39049        -7.03913
   C       -5.91190        17.74226        -7.72246
   C       -7.14039        17.03936        -7.84731
   C       -7.40113        15.89643        -7.05420
   C       -6.40693        15.53342        -6.15453
   S       -6.46365        14.14477        -5.09847
   C       -8.61654        15.12096        -7.17782
   C       -9.32985        14.51868        -6.17948
   C      -10.44255        13.79770        -6.66096
   C      -10.58886        13.82137        -8.01841
   S       -9.32996        14.76947        -8.73042
   C      -11.63099        13.17664        -8.85530
  Cl      -11.51777        12.96097        -5.60941
   C       -7.96798        17.63353        -8.81275
   C       -7.40450        18.72172        -9.45143
   S       -5.80370        19.07154        -8.83978
   C       -8.09846        19.41682       -10.46655
   C       -7.71302        20.47020       -11.24388
   C       -8.51256        21.08754       -12.29062
   C       -9.80394        20.78430       -12.63624
   C      -10.52171        21.43876       -13.66015
   N      -11.16479        21.92651       -14.47658
   C      -10.61581        19.79816       -12.03770
   N      -11.34654        19.02135       -11.61021
   C       -7.69328        22.11699       -12.92102
   C       -6.43089        22.16149       -12.26296
   C       -6.40613        21.15516       -11.19191
   O       -5.48840        20.93920       -10.42414
   C       -5.44708        23.02983       -12.63904
   C       -5.68308        23.91071       -13.71787
   C       -6.94182        23.87232       -14.38449
   C       -7.94236        22.96396       -13.96881
   C       -7.16582        24.75235       -15.46275
   C       -6.19436        25.62816       -15.86497
   C       -4.95554        25.66511       -15.20768
   C       -4.70545        24.82501       -14.15655
   H        5.20115         6.97731         8.53157
   H        4.51884         2.10554         9.34145
   H        6.01192         2.21070        11.23944
   H        7.49577         3.49386        12.72841
   H        7.85104         5.90211        12.35401
   H        6.72625         7.04699        10.48524
   H        1.06699         3.45905         5.41931
   H        2.27296         7.11396         4.69233
   H        2.25508        10.44683         1.38246
   H        4.97476        12.09807         5.09252
   H        4.61896        10.75414         6.19645
   H        3.58743        12.18353         6.18712
   H       -3.20732         5.04303         3.65442
   H       -5.88068         3.23738        -0.01142
   H       -4.54139         3.29413        -1.16744
   H       -5.67993         4.63623        -1.08318
   H       -3.21080         8.35166         0.27537
   H       -3.38463        16.03561        -4.75565
   H       -4.22252        20.14362        -7.02334
   H        0.62751        19.72594        -6.67836
   H        0.68305        18.18219        -7.54417
   H        0.60446        18.19474        -5.78418
   H       -9.10203        14.61184        -5.13433
   H      -12.34682        12.66414        -8.21764
   H      -11.18335        12.45377        -9.53694
   H      -12.15599        13.92011        -9.45393
   H       -8.95938        17.29171        -9.04848
   H       -9.08710        19.01097       -10.64448
   H       -4.49939        23.04166       -12.12134
   H       -8.88248        22.96075       -14.49671
   H       -8.12130        24.72029       -15.96550
   H       -6.37533        26.29752       -16.69254
   H       -4.20035        26.36227       -15.53853
   H       -3.75346        24.84870       -13.64664
*
