# ORCA input file
# SCF done       -194.440140615820          0.000370143240
! CAM-B3LYP def2-SVP def2/J RIJCOSX Grid4 TightSCF
%maxcore 5000
%tddft
    Mode sTDDFT
    Ethresh 5.0
    maxcore 5000
end

%pal
  nprocs 6
  end
* xyz 0 1
   C       -7.93751        -6.65369         9.36384
   C       -6.89560        -5.71907         9.53140
   C       -6.03895        -5.87013        10.65408
   C       -6.29831        -6.88164        11.60277
   C       -7.36238        -7.74110        11.42883
   C       -8.16741        -7.63551        10.29390
   C       -5.43084        -7.04341        12.78423
   O       -5.63197        -7.89020        13.63023
   N       -4.35897        -6.17245        12.88371
   C       -3.47505        -6.30040        14.03004
   C       -4.03199        -5.17771        11.97851
   O       -3.05555        -4.47952        12.15983
   C       -4.91947        -5.02879        10.81443
   C       -4.63927        -4.06712         9.86472
   C       -5.48360        -3.89213         8.77550
   C       -6.61982        -4.66728         8.60596
   C       -7.49902        -4.38001         7.49269
   C       -8.87512        -4.38462         7.44876
   C       -9.36665        -4.01135         6.19205
   C       -8.34347        -3.71657         5.27724
   S       -6.79042        -3.88744         5.96131
   C       -8.93108        -3.35845         4.04009
   C      -10.33231        -3.42514         4.16826
   C      -10.64821        -3.86994         5.52087
   C      -11.87550        -4.17435         6.02946
   C      -13.06258        -4.12933         5.26523
   N      -14.03519        -4.14856         4.66000
   C      -12.03049        -4.63017         7.35653
   N      -12.14723        -5.00811         8.43281
   C      -11.00493        -3.06561         3.00541
   C      -10.12008        -2.74386         1.98317
   S       -8.43720        -2.88177         2.47955
   C      -10.44356        -2.35661         0.66944
   C      -11.71214        -2.06673         0.14880
   C      -11.68326        -1.72220        -1.24898
   N      -12.79987        -1.38624        -1.89932
   C      -13.91552        -1.37271        -1.20437
   C      -15.15247        -0.96441        -1.92025
   O      -15.13881        -0.52257        -3.04778
   C      -16.39614        -1.11891        -1.14327
   C      -16.42185        -1.43204         0.15587
   C      -15.20915        -1.65925         0.96327
   O      -15.23989        -1.77520         2.16826
   C      -13.94356        -1.71107         0.18536
   N      -12.85598        -2.05663         0.83743
   C      -10.39190        -1.74526        -1.79319
   S       -9.24043        -2.17296        -0.56736
   C      -10.00993        -1.46456        -3.11822
   C      -10.84515        -1.27544        -4.21280
   C      -10.11887        -1.02299        -5.37169
   C       -8.72678        -0.99700        -5.15669
   S       -8.30649        -1.31997        -3.53653
   C       -8.08400        -0.69124        -6.37932
   C       -9.06027        -0.52626        -7.37346
   C      -10.36921        -0.75853        -6.78400
   C      -11.56628        -0.78776        -7.43483
   C      -11.66178        -0.51142        -8.81571
   N      -11.73266        -0.28299        -9.93728
   C      -12.77881        -1.14857        -6.80632
   N      -13.76848        -1.48363        -6.33631
   C       -8.51067        -0.21926        -8.62268
   C       -7.13483        -0.14558        -8.58831
   S       -6.50377        -0.46757        -6.97845
   C       -6.22015         0.14621        -9.66663
   C       -6.68993         0.36936       -10.97686
   C       -5.82430         0.64216       -12.00557
   C       -4.44607         0.70485       -11.77395
   C       -3.95403         0.48649       -10.46941
   C       -4.85241         0.21075        -9.43784
   C       -2.54596         0.55841       -10.26673
   C       -1.69784         0.82647       -11.29423
   C       -2.18559         1.05514       -12.66178
   O       -1.50439         1.29658       -13.63215
   N       -3.56373         0.97119       -12.77755
   C       -0.30369         0.89388       -11.07358
   N        0.82116         0.94170       -10.86196
   H       -8.54922        -6.61279         8.47664
   H       -7.54074        -8.50450        12.17074
   H       -8.97300        -8.33803        10.14546
   H       -3.83211        -7.12465        14.64206
   H       -3.48007        -5.37241        14.60142
   H       -2.45842        -6.49178        13.68744
   H       -3.76658        -3.44550         9.99471
   H       -5.26674        -3.11237         8.05951
   H       -9.49042        -4.59856         8.30350
   H      -12.07074        -3.02104         2.86889
   H      -17.30615        -0.92540        -1.69495
   H      -17.35338        -1.50263         0.70098
   H      -11.91600        -1.31982        -4.12439
   H       -9.09535        -0.05367        -9.50813
   H       -7.74738         0.32357       -11.17973
   H       -6.20163         0.80954       -13.00333
   H       -4.46126         0.04591        -8.44430
   H       -2.15550         0.39457        -9.27158
   H       -3.92544         1.12596       -13.71236
*
