# ORCA input file
# SCF done       -201.146016372522          0.000597575371
! CAM-B3LYP def2-SVP def2/J RIJCOSX Grid4 TightSCF
%maxcore 5000
%tddft
    Mode sTDDFT
    Ethresh 5.0
    maxcore 5000
end

%pal
  nprocs 6
  end
* xyz 0 1
   C      -10.30122        -1.94456         0.63272
   C      -10.03550        -2.44172         1.88339
   C      -10.65799        -3.58478         2.42693
   N      -11.12807        -4.50590         2.92578
   C       -9.11143        -1.90594         2.80475
   N       -8.38237        -1.54407         3.61536
   C      -11.25347        -2.51523        -0.31757
   C      -11.22649        -1.74655        -1.50772
   C      -12.01379        -2.02745        -2.59702
   C      -12.87777        -3.12397        -2.50716
   C      -12.90189        -3.88677        -1.31529
   C      -12.10169        -3.60187        -0.21490
   S      -14.04376        -5.19250        -1.41616
   C      -14.46724        -4.70248        -3.03517
   C      -13.78963        -3.61771        -3.47976
  Br      -15.76430        -5.66846        -3.98414
   C      -10.25527        -0.65119        -1.34975
   O       -9.97172         0.19136        -2.18043
   C       -9.70343        -0.78513         0.00287
   C       -8.78572         0.07199         0.55413
   C       -8.19836         1.21825         0.00377
   C       -7.29757         1.98963         0.76193
   O       -6.95390         1.71138         2.04086
   C       -6.33136         2.81568         2.67864
   C       -5.27952         3.47832         1.77766
   C       -4.58894         4.65037         2.45286
   O       -5.90641         3.97009         0.59138
   C       -6.81059         3.09995         0.08299
   C       -7.33590         3.21696        -1.20522
   S       -8.43386         1.92433        -1.58627
   C       -7.01478         4.27317        -2.06722
   C       -7.48084         4.51805        -3.36758
   C       -6.95215         5.73092        -3.93737
   N       -7.27160         6.09120        -5.17943
   C       -8.10149         5.31446        -5.83893
   C       -8.45884         5.74530        -7.21427
   O       -8.04379         6.77125        -7.71269
   C       -9.37166         4.83909        -7.93177
   C       -9.87361         3.72182        -7.39776
   C       -9.57577         3.25545        -6.02912
   O      -10.06144         2.24031        -5.58146
   C       -8.64123         4.11979        -5.26391
   N       -8.32103         3.73767        -4.04567
   C       -6.09119         6.40922        -3.06009
   S       -5.93068         5.53002        -1.56972
   C       -5.43321         7.64439        -3.20759
   C       -5.61231         8.65038        -4.15215
   O       -6.45441         8.57472        -5.19530
   C       -6.20168         9.56068        -6.17826
   C       -6.00478        10.94011        -5.54091
   C       -5.73504        12.02275        -6.57151
   O       -4.88355        10.90496        -4.65060
   C       -4.82557         9.79388        -3.89594
   C       -4.04108         9.69937        -2.74680
   S       -4.24823         8.12306        -2.02385
   C       -3.15921        10.68429        -2.26734
   C       -2.54788        10.75573        -1.04832
   C       -2.79346        10.04237         0.18421
   C       -4.01906         9.63254         0.64781
   C       -4.21327         8.91049         1.83883
   N       -4.41661         8.27133         2.77163
   C       -5.22506         9.96025        -0.00654
   N       -6.22433        10.27500        -0.47627
   C       -1.56789        10.10317         0.97159
   C       -0.68969        11.03641         0.36382
   C       -1.30143        11.54484        -0.88438
   O       -0.85832        12.38071        -1.63802
   C        0.52991        11.35781         0.90710
   C        0.90418        10.72059         2.09559
   C        0.02452         9.78223         2.68603
   C       -1.21508         9.46455         2.14412
   S        0.69180         9.10984         4.14265
   C        2.12166        10.08848         3.94478
   C        2.10307        10.87699         2.84429
  Br        3.50326         9.97303         5.20775
   H      -11.96418        -1.41844        -3.48594
   H      -12.16026        -4.21474         0.66882
   H      -13.92538        -3.18103        -4.45225
   H       -8.44897        -0.12350         1.56566
   H       -5.87274         2.41881         3.58420
   H       -7.09194         3.56051         2.94620
   H       -4.54544         2.71270         1.48256
   H       -5.31516         5.40273         2.74708
   H       -3.89146         5.10846         1.75763
   H       -4.04818         4.31168         3.33084
   H       -9.62172         5.14318        -8.93946
   H      -10.54564         3.08497        -7.95746
   H       -7.06542         9.54149        -6.84215
   H       -5.30137         9.29119        -6.74616
   H       -6.89781        11.18455        -4.94683
   H       -4.87050        11.75823        -7.17449
   H       -5.53146        12.96250        -6.06640
   H       -6.59876        12.14293        -7.21772
   H       -2.87577        11.44295        -2.98979
   H        1.17627        12.07942         0.43280
   H       -1.85570         8.74315         2.62447
   H        2.90113        11.54217         2.56944
*
