# ORCA input file
# SCF done       -204.705074671958          0.000398636267
! CAM-B3LYP def2-SVP def2/J RIJCOSX Grid4 TightSCF
%maxcore 5000
%tddft
    Mode sTDDFT
    Ethresh 5.0
    maxcore 5000
end

%pal
  nprocs 6
  end
* xyz 0 1
   C       -1.85077        -0.38419        -2.70028
   C       -0.58286        -0.31525        -2.18772
   C        0.50821        -1.06666        -2.67632
   N        1.43235        -1.64938        -3.02699
   C       -0.18067         0.48241        -1.09467
   N        0.22047         1.09372        -0.20958
   C       -2.27531        -1.25115        -3.79365
   C       -3.67508        -1.11108        -3.97190
   C       -4.37683        -1.80434        -4.92879
   C       -3.66199        -2.67706        -5.75509
   C       -2.26328        -2.80939        -5.57368
   C       -1.55567        -2.11007        -4.60350
   S       -1.57649        -3.93469        -6.70321
   C       -3.15331        -4.21032        -7.39508
   C       -4.14560        -3.49624        -6.81065
  Br       -3.34032        -5.41120        -8.82201
   C       -4.18821        -0.13697        -2.99952
   O       -5.34930         0.20811        -2.85998
   C       -3.02444         0.34425        -2.24296
   C       -3.04057         1.35450        -1.32121
   C       -4.11643         2.11517        -0.82566
   C       -3.91428         3.16385         0.07811
   C       -5.09707         3.77805         0.44771
   C       -6.22046         3.18165        -0.16764
   S       -5.81987         1.89605        -1.21105
   C       -7.37563         3.87802         0.27315
   C       -6.98907         4.90371         1.15356
   C       -5.54208         4.87379         1.29665
   C       -4.77095         5.69525         2.06295
   C       -3.36498         5.57431         2.11328
   N       -2.22351         5.48189         2.15398
   C       -5.32693         6.72024         2.85913
   N       -5.77834         7.54797         3.51062
   C       -8.07014         5.64807         1.62660
   C       -9.26926         5.17621         1.12861
   S       -9.06384         3.81388         0.03943
   C      -10.54783         5.77317         1.37305
   C      -11.86148         5.37553         1.15914
   C      -12.39981         4.09166         0.68928
   O      -13.39309         4.00500         0.01760
   O      -11.73698         2.98626         1.07042
   C      -12.62425         6.53366         1.53348
   N      -11.81088         7.48201         1.94973
   O      -10.55035         7.03046         1.84675
   C      -14.04002         6.75571         1.54695
   C      -14.62797         7.88228         2.09314
   C      -16.01545         7.84677         1.97481
   C      -16.46753         6.67776         1.33398
   S      -15.19890         5.64026         0.86626
   C      -17.88621         6.72211         1.27063
   C      -18.32196         7.92282         1.86343
   C      -17.16198         8.66498         2.33084
   C      -17.17376         9.85955         2.98841
   C      -15.99339        10.50477         3.41439
   N      -15.04046        11.03990         3.75975
   C      -18.38502        10.52274         3.27886
   N      -19.37857        11.04998         3.50285
   C      -19.70461         8.04876         1.87959
   C      -20.33706         6.95101         1.31333
   S      -19.17868         5.76618         0.71946
   C      -21.71754         6.71841         1.12923
   C      -22.77642         7.32296         1.73524
   C      -22.90984         8.17077         2.90224
   C      -22.13619         8.14414         4.03349
   C      -22.41655         8.89662         5.19380
   N      -22.60694         9.48015         6.16303
   C      -21.03221         7.28826         4.21225
   N      -20.14239         6.59053         4.41174
   C      -24.18940         8.86342         2.78648
   C      -24.93106         8.27862         1.72886
   C      -24.11531         7.23209         1.08477
   O      -24.43121         6.48544         0.18799
   C      -26.19939         8.69335         1.40169
   C      -26.75410         9.74194         2.14300
   C      -25.99643        10.33207         3.18380
   C      -24.71741         9.90675         3.52190
   S      -26.86680        11.62076         3.95641
   C      -28.22080        11.35040         2.89131
   C      -28.03183        10.34859         1.99975
  Br      -29.75372        12.41739         3.05443
   H       -5.44236        -1.67610        -5.03717
   H       -0.49139        -2.24487        -4.50855
   H       -5.17613        -3.54431        -7.11155
   H       -2.08841         1.65097        -0.89785
   H       -2.93492         3.43961         0.42722
   H       -8.01253         6.48437         2.29933
   H      -11.01798         3.15597         1.69249
   H      -14.04696         8.66410         2.54658
   H      -20.23635         8.90962         2.24132
   H      -21.98427         6.00848         0.35197
   H      -26.74653         8.22536         0.59853
   H      -24.17205        10.39103         4.31498
   H      -28.76165        10.04875         1.27010
*
