# ORCA input file
# SCF done       -275.558620883336          0.000886621824
! CAM-B3LYP def2-SVP def2/J RIJCOSX Grid4 TightSCF
%maxcore 5000
%tddft
    Mode sTDDFT
    Ethresh 5.0
    maxcore 5000
end

%pal
  nprocs 6
  end
* xyz 0 1
   C        0.72122         0.07148         0.16386
   C        1.26049        -0.61317        -1.00458
   C        1.43993        -1.99770        -1.07980
   C        1.93765        -2.61216        -2.22048
   C        2.25832        -1.84955        -3.34130
   C        2.06321        -0.47116        -3.30622
   C        1.56274         0.12294        -2.15436
   F        1.38476         1.44798        -2.13135
   F        2.34741         0.27170        -4.37411
   F        2.72673        -2.43419        -4.43774
   F        2.10109        -3.93549        -2.24370
   F        1.11457        -2.76623        -0.03289
   C        1.05625        -0.13102         1.45739
   C        0.31028         0.58859         2.51264
   C       -1.08372         0.57001         2.55356
   C       -1.79430         1.22609         3.55322
   C       -1.10933         1.93236         4.53846
   C        0.28211         1.97546         4.51161
   C        0.97343         1.30741         3.50747
   F        2.30732         1.38347         3.48993
   F        0.94658         2.65528         5.44502
   F       -1.77968         2.56291         5.49842
   F       -3.12518         1.17864         3.57180
   F       -1.76180        -0.11125         1.62801
   C        2.13359        -0.98437         1.89500
   C        3.26828        -1.31858         1.18797
   C        4.07650        -2.21210         1.88596
   C        3.57419        -2.52778         3.16076
   S        2.08510        -1.75791         3.47120
   C        4.49328        -3.39330         3.80557
   C        5.56686        -3.63786         2.92225
   C        5.30794        -2.94958         1.66769
   C        5.98224        -3.06224         0.48690
   C        7.13399        -3.86621         0.34803
   N        8.06250        -4.52916         0.24189
   C        5.48886        -2.42886        -0.67293
   N        5.02234        -1.92519        -1.59207
   C        6.54564        -4.45322         3.47214
   C        6.23557        -4.83695         4.77164
   S        4.68289        -4.19499         5.29842
   C        7.00056        -5.62404         5.67402
   C        8.33318        -6.05120         5.43592
   C        9.07319        -6.83416         6.39915
   N       10.28148        -7.31104         6.06521
   C       10.81862        -6.99658         4.91481
   C       10.14907        -6.09020         4.02848
   N        8.93813        -5.67609         4.29901
   C       10.79675        -5.63046         2.85319
   N       11.36001        -5.26546         1.92580
   C       12.06132        -7.57099         4.54347
   N       13.05115        -8.02976         4.19675
   C        8.54827        -7.14926         7.67950
   C        7.21394        -6.74820         7.89556
   C        6.46208        -6.00678         6.92049
   N        5.23180        -5.72983         7.35677
   S        5.03772        -6.33714         8.82833
   N        6.49834        -6.97785         8.99815
   C        9.28315        -7.79746         8.70791
   C       10.64416        -8.07728         8.75149
   C       11.01448        -8.67530         9.94743
   C        9.92707        -8.86941        10.82420
   S        8.45767        -8.28740        10.18165
   C       10.41746        -9.46958        12.01014
   C       11.80633        -9.65075        11.88705
   C       12.23127        -9.14375        10.59426
   C       13.50609        -9.06857        10.11672
   C       14.60464        -9.52363        10.87670
   N       15.48660        -9.88470        11.51428
   C       13.80450        -8.49545         8.86124
   N       14.04674        -8.00970         7.85194
   C       12.38031       -10.21655        13.02609
   C       11.44295       -10.48326        14.00027
   S        9.82447       -10.00847        13.51545
   C       11.71668       -11.00343        15.32000
   C       13.00418       -10.57076        15.90662
   C       13.85666       -11.47852        16.53601
   C       15.07767       -11.08494        17.07398
   C       15.47046        -9.75123        16.99809
   C       14.63304        -8.82448        16.38246
   C       13.42032        -9.23986        15.84514
   F       12.62599        -8.32138        15.28588
   F       14.98958        -7.54322        16.31534
   F       16.63129        -9.36412        17.51588
   F       15.86812       -11.97932        17.66345
   F       13.51157       -12.76544        16.61251
   C       10.88920       -11.78339        16.04810
   C        9.65983       -12.41227        15.59228
   C        9.53047       -13.04182        14.34988
   C        8.35580       -13.67853        13.97101
   C        7.27031       -13.71492        14.84243
   C        7.37903       -13.12025        16.09724
   C        8.56281       -12.49052        16.45708
   F        8.65368       -11.91929        17.66146
   F        6.35004       -13.15638        16.94315
   F        6.14030       -14.31843        14.48080
   F        8.26746       -14.25854        12.77332
   F       10.56512       -13.06493        13.50339
   H       -0.00043         0.84312        -0.06713
   H        3.50755        -0.90146         0.22803
   H        7.45157        -4.75723         2.98211
   H       11.30623        -7.84345         7.93907
   H       13.42426       -10.44836        13.13679
   H       11.12964       -11.97400        17.08468
*
