# ORCA input file
# SCF done       -258.532849935622          0.001873587845
! CAM-B3LYP def2-SVP def2/J RIJCOSX Grid4 TightSCF
%maxcore 5000
%tddft
    Mode sTDDFT
    Ethresh 5.0
    maxcore 5000
end

%pal
  nprocs 6
  end
* xyz 0 1
   C       15.59871        -1.62704         1.29312
   C       15.71812        -1.87316        -0.04500
   C       16.66726        -2.84912        -0.58777
   O       17.46118        -3.46503         0.08654
   C       16.53841        -3.01658        -2.05426
   C       15.64166        -2.23925        -2.83706
   C       15.69444        -2.58517        -4.16733
   S       16.81761        -3.84460        -4.48759
   C       17.23489        -3.91800        -2.82307
   C       18.25725        -4.91374        -2.36556
   F       17.76707        -5.77744        -1.47297
   F       18.69521        -5.64961        -3.40329
   F       19.33560        -4.33801        -1.83080
   C       14.89576        -2.01218        -5.29896
   F       13.57814        -2.13756        -5.11173
   F       15.15744        -0.72278        -5.51942
   F       15.17609        -2.65744        -6.44548
   C       14.76915        -1.18768        -2.27291
   O       14.08347        -0.47663        -2.99279
   C       14.81398        -1.09388        -0.83422
   C       14.00003        -0.27169        -0.05137
   S       14.39164        -0.47589         1.64456
   C       12.94191         0.60611        -0.38568
   C       12.10504         1.19516         0.56392
   C       11.11761         1.97251        -0.01452
   C       11.21889         2.00156        -1.42478
   S       12.50021         1.05642        -2.03007
   C       10.13705         2.75894        -1.93013
   C        9.34576         3.19919        -0.84561
   C        9.94900         2.73708         0.39349
   C        9.50604         2.95779         1.66441
   C       10.18801         2.44548         2.78818
   N       10.74619         2.02479         3.69668
   C        8.34100         3.70654         1.93545
   N        7.39324         4.31149         2.16008
   C        8.21020         3.88491        -1.25270
   C        8.13355         3.98071        -2.63818
   S        9.50977         3.24032        -3.44274
   C        7.05753         4.49934        -3.40199
   C        7.13426         4.56622        -4.81210
   C        5.99914         4.90759        -5.62745
   N        6.12581         4.93369        -6.95781
   C        7.28062         4.65670        -7.51362
   C        8.41142         4.31870        -6.70163
   N        8.30284         4.27948        -5.39574
   C        9.66198         4.03479        -7.30497
   N       10.65688         3.81701        -7.82792
   C        7.39239         4.70117        -8.92547
   N        7.50316         4.73154       -10.06504
   C        4.72517         5.17480        -5.07559
   C        4.67468         5.22191        -3.66244
   C        5.82126         4.89915        -2.84152
   N        5.53032         4.98900        -1.54340
   S        4.00199         5.43653        -1.36561
   N        3.61346         5.53062        -2.91694
   C        3.58409         5.28571        -5.90832
   C        2.25767         5.38119        -5.49806
   C        1.37915         5.32059        -6.56939
   C        2.04130         5.20347        -7.81065
   S        3.74270         5.15986        -7.65294
   C        1.06301         5.06899        -8.82211
   C       -0.21460         5.08089        -8.22701
   C       -0.05864         5.27559        -6.79539
   C       -1.04564         5.38929        -5.86216
   C       -0.76078         5.55479        -4.48946
   N       -0.53132         5.68692        -3.37394
   C       -2.41490         5.37660        -6.20686
   N       -3.52762         5.40050        -6.47895
   C       -1.24070         4.83601        -9.13710
   C       -0.75689         4.65297       -10.41714
   S        0.99296         4.81767       -10.50515
   C       -1.48453         4.33616       -11.60317
   C       -2.54556         3.45687       -11.76667
   C       -3.04610         2.55023       -10.73800
   O       -2.65152         2.51109        -9.59122
   C       -4.08700         1.61803       -11.23968
   C       -4.58637         1.62882       -12.57109
   C       -5.54882         0.66638       -12.76274
   S       -5.86352        -0.25902       -11.35088
   C       -4.69252         0.64615       -10.47850
   C       -4.43410         0.30609        -9.04164
   F       -3.17343        -0.08111        -8.82374
   F       -4.70367         1.31280        -8.21007
   F       -5.21293        -0.72211        -8.65655
   C       -6.29617         0.35723       -14.02469
   F       -5.48777        -0.01697       -15.01970
   F       -7.15064        -0.66318       -13.82802
   F       -7.02984         1.38470       -14.45594
   C       -4.08492         2.55975       -13.60920
   O       -4.51321         2.59208       -14.73990
   C       -2.99813         3.41479       -13.12195
   C       -2.28016         4.23747       -13.94482
   S       -1.04183         5.07064       -13.12026
   H       16.16913        -2.08457         2.07801
   H       12.22007         1.02880         1.62057
   H        7.44981         4.29068        -0.61095
   H        1.98839         5.46517        -4.46116
   H       -2.28436         4.78889        -8.88932
   H       -2.42837         4.37118       -14.99870
*
