# ORCA input file
# SCF done       -196.749468098209          0.000616354910
! CAM-B3LYP def2-SVP def2/J RIJCOSX Grid4 TightSCF
%maxcore 5000
%tddft
    Mode sTDDFT
    Ethresh 5.0
    maxcore 5000
end

%pal
  nprocs 6
  end
* xyz 0 1
   C       -2.68706        -2.78507        -3.62140
   O       -2.35509        -1.65495        -3.35935
   C       -3.75174        -3.23086        -4.54910
   C       -3.76304        -4.63716        -4.61611
   C       -4.70233        -5.28505        -5.39926
   C       -5.61643        -4.51612        -6.11057
   C       -5.58888        -3.12039        -6.05323
   C       -4.64997        -2.46682        -5.26514
  Br       -6.83331        -2.10049        -7.04428
  Br       -6.91216        -5.39514        -7.16828
   C       -2.66702        -5.15402        -3.80118
   C       -2.05848        -6.36833        -3.96171
   C       -2.55862        -7.38888        -4.79635
   N       -2.94371        -8.24867        -5.45090
   C       -0.80653        -6.67972        -3.38626
   N        0.24059        -6.93418        -2.99285
   C       -2.15688        -4.04189        -3.02422
   C       -1.44210        -3.99264        -1.87026
   C       -1.20283        -5.01871        -0.91981
   C       -0.25255        -4.97980         0.07073
   C       -0.27037        -6.10112         0.92507
   C       -1.30748        -7.01437         0.58084
   S       -2.21522        -6.45129        -0.79320
   C       -1.52828        -8.17860         1.27548
   C       -0.69347        -8.45323         2.36402
   C        0.33604        -7.53656         2.72031
   C        0.55928        -6.37733         2.01605
   S        1.21793        -8.07852         4.12576
   C        0.22925        -9.51984         4.21739
   C       -0.72211        -9.56745         3.22425
   C        0.43467       -10.48268         5.24921
   C        1.39746       -10.27159         6.25955
   C        1.59617       -11.19757         7.34262
   N        2.51307       -10.92856         8.28079
   C        3.22460        -9.83299         8.20808
   C        3.03263        -8.91376         7.12292
   N        2.13933        -9.15809         6.19890
   C        3.80910        -7.73055         7.04183
   N        4.45431        -6.78531         7.00642
   C        4.18967        -9.56464         9.21104
   N        4.98028        -9.32000        10.00233
   C        0.85440       -12.39266         7.46413
   C       -0.08620       -12.62662         6.43633
   C       -0.29611       -11.68705         5.35344
   N       -1.23769       -12.11817         4.51094
   S       -1.79398       -13.53377         5.01063
   N       -0.88648       -13.68885         6.32046
   C        1.05463       -13.27196         8.56850
   C        0.40998       -14.46586         8.79823
   C        0.80784       -15.10040         9.99074
   C        1.79331       -14.34431        10.68816
   S        2.20180       -12.87903         9.83142
   C        2.32317       -14.76186        11.88468
   C        1.86752       -15.97205        12.41845
   C        0.89350       -16.73414        11.71081
   C        0.35764       -16.31532        10.51576
   S        0.50867       -18.20408        12.55434
   C        1.59387       -17.77857        13.86490
   C        2.23458       -16.58470        13.63249
   C        1.76138       -18.69465        14.93336
   C        2.23608       -18.48056        16.18979
   C        2.71459       -19.64800        16.98291
   O        2.54328       -20.81588        16.73183
   C        3.48381       -19.06081        18.10147
   C        3.36952       -17.65870        18.06578
   C        2.47755       -17.28342        16.96900
   C        1.81064       -16.09192        16.87290
   C        0.76623       -15.84507        15.95763
   N       -0.11160       -15.60334        15.25971
   C        2.02917       -14.99871        17.73843
   N        2.18717       -14.07913        18.40571
   C        4.03688       -16.88913        19.00340
   C        4.80329       -17.53342        19.96821
   C        4.89988       -18.92674        20.00552
   C        4.23623       -19.70234        19.06334
  Br        5.93976       -19.77536        21.33511
  Br        5.72565       -16.48564        21.24196
   H       -4.75034        -6.36056        -5.46138
   H       -4.62273        -1.38945        -5.21310
   H       -1.07651        -3.00838        -1.59276
   H        0.45736        -4.17690         0.16274
   H       -2.31377        -8.86318         0.99826
   H        1.34711        -5.69507         2.29237
   H       -1.41673       -10.38159         3.12957
   H       -0.32692       -14.86204         8.12419
   H        3.06168       -14.17498        12.40709
   H       -0.38442       -16.89832         9.99443
   H        2.98331       -16.17772        14.28953
   H        1.54247       -19.73325        14.70247
   H        3.98808       -15.81203        19.00113
   H        4.30620       -20.77885        19.08138
*
