# ORCA input file
# SCF done       -172.941185799600          0.005286129437
! CAM-B3LYP def2-SVP def2/J RIJCOSX Grid4 TightSCF
%maxcore 5000
%tddft
    Mode sTDDFT
    Ethresh 5.0
    maxcore 5000
end

%pal
  nprocs 6
  end
* xyz 0 1
   C        3.40026       -10.15088         2.96516
   C        3.54246       -11.43046         3.47940
   C        2.50744       -12.34987         3.39907
   C        1.29725       -12.01422         2.81172
   C        1.14048       -10.74037         2.28972
   C        2.19943        -9.80637         2.36540
   C        1.77529        -8.56592         1.73387
   C        2.57705        -7.49380         1.45604
   C        3.94705        -7.42178         1.79479
   N        5.05811        -7.28828         2.04619
   C        2.19802        -6.32355         0.75793
   N        1.99785        -5.34797         0.18624
   C        0.35128        -8.71387         1.42726
   C        0.02552       -10.12414         1.57948
   C       -0.99534       -10.80141         0.96681
   C       -1.87783       -10.25074         0.01488
   N       -2.55863        -9.92194        -0.84956
   C       -1.15976       -12.19611         1.07249
   N       -1.30800       -13.33449         1.11748
   C       -0.44811        -7.63612         1.18853
   C       -1.86103        -7.47311         1.15592
   N       -2.72788        -8.40292         1.51372
   N       -4.01214        -8.20317         1.54621
   C       -4.61227        -7.01708         1.21377
   C       -3.76006        -5.96956         0.76771
   C       -2.35219        -6.18681         0.75494
   N       -1.68034        -5.12562         0.34595
   S       -2.73549        -3.95166        -0.00744
   N       -4.08956        -4.75098         0.36112
   C       -6.00874        -6.91580         1.27932
   C       -7.05792        -6.06326         0.79040
   N       -8.24353        -6.66354         0.77243
   C       -8.08025        -7.90871         1.27668
   C       -6.71317        -8.05828         1.67482
   C       -6.35688        -9.39170         1.82728
   S       -4.81547       -10.03796         1.74315
   C       -7.56152       -10.09519         1.68074
   C       -8.63260        -9.24637         1.28597
   N       -9.63690       -10.02290         0.79798
   C       -9.21930       -11.27906         0.82706
   C       -7.86673       -11.40646         1.31291
   C       -6.80781       -12.32755         1.32708
   N       -5.56854       -11.88494         1.69410
   N       -4.55679       -12.67378         1.92531
   C       -4.61373       -13.97648         1.76336
   C       -5.78766       -14.55722         1.19385
   C       -6.91561       -13.70398         0.99073
   N       -7.96636       -14.36242         0.52218
   S       -7.56444       -15.91399         0.35214
   N       -6.04021       -15.81465         0.87367
   C       -3.51863       -14.82121         2.15000
   C       -2.70176       -14.64547         3.21584
   C       -1.43544       -15.35172         3.41491
   C       -1.00407       -16.46651         2.75356
   C       -1.75441       -17.21046         1.81317
   N       -2.29741       -17.88836         1.06257
   C        0.26783       -17.05213         2.94081
   N        1.29006       -17.56451         3.03879
   C       -0.69989       -14.61240         4.43103
   C       -1.50127       -13.54331         4.89773
   C       -1.01479       -12.66204         5.85177
   C        0.25514       -12.87291         6.36578
   C        1.02439       -13.94852         5.94374
   C        0.56135       -14.82067         4.96908
   C       -2.81159       -13.64422         4.27783
   C       -3.96357       -13.10483         4.77816
   C       -4.00326       -12.15205         5.81849
   N       -4.10393       -11.35611         6.63952
   C       -5.26483       -13.49065         4.39413
   N       -6.34875       -13.79445         4.16518
   H        4.21241        -9.44632         3.03740
   H        4.47453       -11.71271         3.94471
   H        2.64421       -13.34448         3.79502
   H        0.49983       -12.73704         2.77089
   H        0.05150        -6.68487         1.05292
   H       -6.95460        -5.05632         0.43196
   H       -9.85524       -12.07432         0.48759
   H       -3.36547       -15.66615         1.49422
   H       -1.60624       -11.82797         6.19381
   H        0.64309       -12.19869         7.11460
   H        1.99955       -14.10817         6.37868
   H        1.17476       -15.64632         4.64664
*
