# ORCA input file
# SCF done       -310.664155890902          0.000794928648
! CAM-B3LYP def2-SVP def2/J RIJCOSX Grid4 TightSCF
%maxcore 5000
%tddft
    Mode sTDDFT
    Ethresh 5.0
    maxcore 5000
end

%pal
  nprocs 6
  end
* xyz 0 1
   C        2.21476        -2.86961         1.81061
   C        1.59287        -2.86181         0.59664
   C        1.23862        -1.55579         0.21471
   C        1.61125        -0.60028         1.17126
   S        2.38629        -1.30311         2.52024
   C        1.21796         0.68473         0.70512
   C        0.60092         0.53253        -0.54699
   C        0.58472        -0.88293        -0.89291
   C        0.04810        -1.43677        -2.01785
   C       -0.58233        -0.63617        -2.99458
   N       -1.09734         0.03758        -3.76637
   C        0.07959        -2.82590        -2.26416
   N        0.10529        -3.95397        -2.46399
   C        0.18390         1.73974        -1.09565
   C        0.48249         2.82327        -0.28228
   S        1.28553         2.31255         1.20049
   C        0.11187         4.17654        -0.55254
   C       -0.80045         4.30668        -1.72488
   C       -0.25043         4.52824        -2.98585
   C       -1.04741         4.60181        -4.12474
   C       -2.42724         4.43931        -4.01081
   C       -2.99159         4.19418        -2.76099
   C       -2.17349         4.11916        -1.63909
   F       -2.72808         3.88683        -0.44035
   F       -4.30904         4.04301        -2.63346
   F       -3.19971         4.50800        -5.08603
   F       -0.49906         4.81283        -5.31416
   F        1.07070         4.63567        -3.10295
   C        0.57432         5.28725         0.09469
   C        1.74945         5.18436         0.99749
   C        2.99756         4.81524         0.49243
   C        4.12287         4.72603         1.30024
   C        4.02089         5.00805         2.66118
   C        2.78846         5.37698         3.19192
   C        1.67404         5.46269         2.36101
   F        0.50408         5.78437         2.90176
   F        2.67180         5.62872         4.49011
   F        5.08939         4.91312         3.44324
   F        5.29628         4.37972         0.77161
   F        3.12279         4.55517        -0.81513
   C       -0.02130         6.61268        -0.01132
   C       -1.50430         6.72196        -0.09018
   C       -2.08365         7.11384        -1.29819
   C       -3.45837         7.24342        -1.45866
   C       -4.30441         6.98830        -0.38149
   C       -3.75278         6.58909         0.83240
   C       -2.37315         6.45018         0.96298
   F       -1.89203         6.08947         2.15256
   F       -4.53811         6.35435         1.88055
   F       -5.61679         7.11760        -0.51185
   F       -3.96010         7.58421        -2.64057
   F       -1.29848         7.31015        -2.36020
   C        0.72780         7.75422        -0.06268
   C        2.14578         7.66377        -0.50811
   C        2.41058         7.35038        -1.84249
   C        3.70377         7.24317        -2.34078
   C        4.78863         7.44083        -1.48893
   C        4.55226         7.76293        -0.15573
   C        3.24691         7.88177         0.31526
   F        3.07256         8.16868         1.60513
   F        5.57067         7.94243         0.68150
   F        6.02859         7.33032        -1.94307
   F        3.90052         6.97807        -3.62748
   F        1.38864         7.21152        -2.69044
   C        0.19176         9.06446         0.28037
   C       -0.72562         9.09971         1.44809
   C       -2.05536         9.49335         1.28793
   C       -2.94720         9.52890         2.35115
   C       -2.51718         9.16563         3.62591
   C       -1.19662         8.76889         3.81432
   C       -0.32108         8.73774         2.73174
   F        0.94184         8.38755         2.94840
   F       -0.76798         8.43937         5.02686
   F       -3.35905         9.21026         4.65135
   F       -4.21030         9.90267         2.14862
   F       -2.49442         9.83160         0.06896
   C        0.50169        10.22067        -0.37830
   C        1.09901        10.17612        -1.74385
   C        0.25718        10.02902        -2.84422
   C        0.75208        10.03861        -4.14538
   C        2.11861        10.20953        -4.36080
   C        2.97200        10.38035        -3.27288
   C        2.45245        10.37423        -1.98329
   F        3.28304        10.53642        -0.94309
   F        4.28139        10.53759        -3.46091
   F        2.60537        10.21890        -5.59384
   F       -0.07097         9.89853        -5.17637
   F       -1.05298         9.91282        -2.64285
   C        0.23863        11.55047         0.07249
   C        0.37270        12.69259        -0.70381
   C        0.13802        13.85670         0.01844
   C       -0.17355        13.61152         1.36544
   S       -0.17960        11.94957         1.73686
   C       -0.39689        14.86019         2.00903
   C       -0.22111        15.88547         1.06834
   C        0.12788        15.29568        -0.21116
   C        0.41054        15.93089        -1.38444
   C        0.38018        17.33601        -1.51040
   N        0.35672        18.47741        -1.60891
   C        0.76460        15.20154        -2.53995
   N        1.05868        14.58258        -3.45926
   C       -0.42131        17.16159         1.62377
   C       -0.73991        17.07933         2.94749
   S       -0.80349        15.46214         3.55386
   H        2.59197        -3.71867         2.34501
   H        1.40351        -3.74621         0.01630
   H       -0.30235         1.83369        -2.04890
   H        0.61819        12.66962        -1.74933
   H       -0.33757        18.08788         1.08546
   H       -0.94591        17.88769         3.62048
*
