# ORCA input file
# SCF done       -200.033265644784          0.000553272489
! CAM-B3LYP def2-SVP def2/J RIJCOSX Grid4 TightSCF
%maxcore 5000
%tddft
    Mode sTDDFT
    Ethresh 5.0
    maxcore 5000
end

%pal
  nprocs 6
  end
* xyz 0 1
   C       -0.41816        -0.69292        -7.86438
   C       -1.18676        -0.79055        -8.99019
   F       -1.03351         0.08986        -9.98928
   C       -2.14700        -1.81371        -9.11648
   F       -2.88635        -1.88709       -10.23282
   C       -2.32668        -2.72474        -8.11371
   C       -1.55023        -2.65062        -6.94126
   C       -0.57797        -1.61719        -6.81234
   C        0.21562        -1.52566        -5.64572
   C        0.03837        -2.43639        -4.63729
   C       -0.93557        -3.46311        -4.77446
   C       -1.71051        -3.58189        -5.89107
   C       -0.91500        -4.32708        -3.57557
   O       -1.51795        -5.36956        -3.44102
   C        0.09958        -3.72788        -2.67208
   C        0.69540        -2.59025        -3.34178
   C        1.65894        -1.75379        -2.83760
   C        2.25817        -1.87313        -1.56677
   N        2.78822        -1.89554        -0.54791
   C        2.18205        -0.64247        -3.53021
   N        2.65033         0.27199        -4.04316
   C        0.50100        -4.27769        -1.48812
   C       -0.22389        -5.25210        -0.74421
   C        0.43151        -6.22385         0.01971
   C       -0.22705        -7.23694         0.69494
   C       -1.62444        -7.35204         0.71976
   C       -2.31304        -6.32467         0.01995
   C       -1.63646        -5.29552        -0.69254
   N       -2.56909        -4.46618        -1.17814
   N       -3.69783        -4.99388        -0.79625
   N       -3.62706        -6.08726        -0.08884
   C       -4.95568        -4.41701        -1.15595
   C       -2.41120        -8.36433         1.31893
   C       -2.07510        -9.42080         2.12872
   C       -0.86597        -9.83016         2.74440
   C       -0.96779       -10.97042         3.48281
   C       -2.26287       -11.53522         3.50058
   S       -3.35556       -10.55211         2.56298
   C       -2.68001       -12.69163         4.13484
   C       -1.91401       -13.59804         4.89981
   C       -2.62933       -14.65440         5.37438
   C       -4.00478       -14.64806         5.01898
   S       -4.34111       -13.22746         4.04842
   C       -4.89991       -15.62287         5.38332
   C       -6.28287       -15.73387         5.11533
   C       -7.08325       -14.81411         4.42265
   C       -8.43848       -14.99917         4.22919
   C       -9.15842       -16.09365         4.72921
   C       -8.37259       -17.06775         5.39354
   C       -6.97315       -16.88286         5.58317
   N       -6.51062       -17.95911         6.23297
   N       -7.55905       -18.71380         6.39940
   N       -8.68892       -18.25739         5.92503
   C       -7.49049       -19.96467         7.08934
   C      -10.55850       -16.17487         4.50374
   C      -11.51691       -16.93344         5.11128
   C      -12.81280       -17.14821         4.41485
   O      -13.23194       -16.54805         3.45116
   C      -13.44632       -18.28567         5.11671
   C      -14.60358       -18.94274         4.81638
   C      -15.00876       -20.02689         5.62799
   C      -14.19994       -20.41018         6.73677
   C      -14.60798       -21.49509         7.53826
   C      -15.76519       -22.16480         7.25524
   C      -16.56509       -21.78318         6.16051
   C      -16.19572       -20.73662         5.36276
   F      -17.69572       -22.45814         5.90593
   F      -16.15067       -23.19593         8.02083
   C      -13.01015       -19.70371         7.02863
   C      -12.64023       -18.65401         6.23182
   C      -11.51631       -17.72606         6.31381
   C      -10.74031       -17.51219         7.42533
   C       -9.92035       -16.37812         7.58925
   N       -9.27595       -15.44897         7.78849
   C      -10.69975       -18.37324         8.53557
   N      -10.56570       -19.07811         9.43338
   H        0.31258         0.09666        -7.78413
   H       -3.06519        -3.50305        -8.22600
   H        0.94842        -0.73761        -5.58377
   H       -2.43684        -4.37632        -5.97186
   H        1.45642        -3.98401        -1.07082
   H        1.51233        -6.21446         0.03023
   H        0.37380        -7.98084         1.19007
   H       -4.90459        -3.33603        -1.03487
   H       -5.72291        -4.84190        -0.51275
   H       -5.18373        -4.64466        -2.19885
   H       -3.46417        -8.27974         1.07851
   H        0.04610        -9.27049         2.65763
   H       -0.14726       -11.41553         4.01663
   H       -0.86387       -13.45000         5.07593
   H       -2.21676       -15.44588         5.97447
   H       -4.49297       -16.43890         5.96768
   H       -6.63510       -13.91603         4.03001
   H       -8.98922       -14.23634         3.69801
   H       -7.85152       -20.76408         6.44193
   H       -8.11613       -19.92909         7.98304
   H       -6.45394       -20.14029         7.36569
   H      -10.92638       -15.58064         3.67154
   H      -15.20481       -18.63946         3.97274
   H      -14.00914       -21.79874         8.38268
   H      -16.81899       -20.45656         4.52801
   H      -12.41560       -20.01451         7.87306
*
