# ORCA input file
# SCF done       -152.050907621777          0.000459186112
! CAM-B3LYP def2-SVP def2/J RIJCOSX Grid4 TightSCF
%maxcore 5000
%tddft
    Mode sTDDFT
    Ethresh 5.0
    maxcore 5000
end

%pal
  nprocs 6
  end
* xyz 0 1
   C       -4.85113        -3.08430         3.82433
   C       -3.58643        -3.01144         3.33143
   C       -3.12509        -1.68054         3.28209
   C       -4.08627        -0.76395         3.75386
   S       -5.52929        -1.54002         4.24688
   C       -3.55207         0.53816         3.67451
   C       -2.24447         0.44974         3.14992
   C       -1.94412        -0.95821         2.88874
   C       -0.77803        -1.46320         2.37796
   C        0.31362        -0.64531         2.02890
   N        1.21290         0.00719         1.73984
   C       -0.59120        -2.84292         2.16553
   N       -0.43122        -3.96579         1.98919
   C       -1.61326         1.67228         3.02770
   C       -2.42013         2.73325         3.45611
   S       -3.99646         2.15570         4.01582
   C       -2.16419         4.10336         3.50402
   C       -1.01315         4.77391         3.13379
   C       -0.82332         6.16804         3.22435
   C        0.40848         6.59866         2.80755
   C        1.24641         5.56447         2.36627
   S        0.43417         4.02663         2.48989
   C        2.55538         5.65071         1.88897
   C        3.35778         6.78983         1.75430
   C        4.61405         6.52113         1.26388
   C        4.84221         5.16722         0.99187
   S        3.42109         4.22656         1.37340
   C        6.01409         4.59356         0.49408
   C        6.16766         3.25588         0.22770
   C        7.33609         2.66629        -0.25548
   C        7.52585         1.31201        -0.55773
   C        8.78621         1.01023        -1.01195
   C        9.63961         2.12084        -1.07867
   S        8.80417         3.56396        -0.56090
   C       10.97470         2.15180        -1.47358
   C       11.76860         1.08002        -1.91764
   C       13.05463         1.43209        -2.21423
   C       13.34517         2.80256        -2.01390
   S       11.90714         3.62864        -1.44800
   C       14.57317         3.38630        -2.21810
   C       14.93658         4.72843        -2.01115
   S       16.59825         5.19895        -2.32570
   C       16.31870         6.83971        -1.82903
   C       14.97471         6.99477        -1.48799
   C       14.21380         5.81695        -1.57250
   N       14.39612         8.19277        -1.00843
   O       15.04146         9.22649        -1.08982
   O       13.27816         8.12892        -0.53719
   C       17.38518         7.78563        -1.88939
   S       17.16905         9.31570        -2.67558
   C       18.82338         9.67189        -2.60364
   C       19.55351         8.69179        -1.95691
   C       18.72324         7.60091        -1.53199
   C       19.31604         6.57759        -0.74082
   C       18.55654         5.58379        -0.08753
   N       17.98876         4.78897         0.51526
   C       20.67424         6.60758        -0.49988
   C       21.48495         7.64212        -0.99491
   C       20.94012         8.68304        -1.69093
   H       -5.45058        -3.95981         3.97405
   H       -3.01661        -3.86808         3.02047
   H       -0.61775         1.80692         2.64925
   H       -2.96562         4.72436         3.88426
   H       -1.59684         6.81676         3.59578
   H        0.72017         7.62747         2.81080
   H        3.01099         7.77270         2.01762
   H        5.36974         7.26799         1.09605
   H        6.84560         5.26288         0.31203
   H        5.32896         2.59245         0.39964
   H        6.73760         0.59039        -0.43558
   H        9.10640         0.02215        -1.28843
   H       11.38109         0.08136        -2.00789
   H       13.80640         0.74758        -2.56466
   H       15.36138         2.73116        -2.56450
   H       13.17403         5.79730        -1.30570
   H       19.19620        10.58823        -3.01649
   H       21.11583         5.82835         0.10380
   H       22.54352         7.61849        -0.78638
   H       21.54492         9.50852        -2.03352
*
