# ORCA input file
# SCF done       -207.094613804725          0.000843394601
! CAM-B3LYP def2-SVP def2/J RIJCOSX Grid4 TightSCF
%maxcore 5000
%tddft
    Mode sTDDFT
    Ethresh 5.0
    maxcore 5000
end

%pal
  nprocs 6
  end
* xyz 0 1
   C       -1.72063        -0.10168        -8.18731
   C       -2.47079         0.02233        -9.32331
   F       -2.14253         0.93259       -10.25117
   C       -3.59384        -0.80110        -9.53415
   F       -4.31149        -0.65888       -10.65808
   C       -3.95208        -1.73783        -8.60532
   C       -3.19881        -1.89041        -7.42560
   C       -2.06304        -1.05769        -7.21065
   C       -1.29071        -1.19428        -6.03311
   C       -1.64546        -2.13440        -5.10363
   C       -2.77896        -2.96420        -5.32776
   C       -3.54259        -2.85666        -6.45284
   C       -2.93349        -3.90478        -4.19733
   O       -3.76157        -4.78899        -4.10530
   C       -1.80930        -3.60827        -3.28528
   C       -1.05211        -2.50605        -3.82160
   C       -0.01510        -1.85652        -3.19650
   C        0.45542        -2.17655        -1.90724
   N        0.86654        -2.37471        -0.85321
   C        0.67603        -0.76145        -3.74998
   N        1.27536         0.13004        -4.15642
   C       -1.41508        -4.43337        -2.25275
   C       -2.21395        -5.38513        -1.61349
   C       -3.60265        -5.39713        -1.35342
   C       -4.04737        -6.61152        -0.75757
   C       -5.38976        -6.72622        -0.35833
   C       -6.25337        -5.68576        -0.58093
   C       -5.80854        -4.48843        -1.15857
   C       -4.49744        -4.32952        -1.52133
   C       -2.99514        -7.54022        -0.56680
   S       -1.47334        -6.82593        -0.97933
   C       -3.01255        -8.89096        -0.17139
   C       -4.09652        -9.71681        -0.23367
   C       -4.12868       -11.07546         0.15782
   C       -5.28474       -11.82102         0.00141
   C       -5.43987       -13.15190         0.35529
   C       -4.28928       -13.94075         0.81143
   C       -3.06623       -13.42112         1.05703
   S       -2.67056       -11.76341         0.86116
   C       -4.75979       -15.27982         0.90878
   C       -6.10921       -15.33159         0.55765
   C       -6.63198       -16.64045         0.64258
   C       -5.68518       -17.52880         1.04315
   S       -4.13285       -16.81976         1.33810
   C       -6.57073       -14.00381         0.24585
   C       -7.90633       -13.69585        -0.06064
   C       -8.48028       -12.45195        -0.02430
   C       -9.79977       -12.16004        -0.38325
   C      -10.41695       -10.88385        -0.36192
   C      -11.77085       -10.90958        -0.79751
   C      -12.46715        -9.70042        -0.95560
   C      -11.85684        -8.52256        -0.60951
   C      -10.54741        -8.50518        -0.10917
   C       -9.82444        -9.66421        -0.00035
   C      -12.21787       -12.21439        -1.11319
   S      -10.90925       -13.35575        -0.96678
   C      -13.47601       -12.68141        -1.50043
   C      -14.67993       -12.05803        -1.27394
   C      -15.92299       -12.54410        -1.69864
   C      -16.22884       -13.43924        -2.69879
   C      -17.53725       -14.13297        -2.64763
   O      -18.46517       -13.88503        -1.90823
   C      -17.44993       -15.21513        -3.65129
   C      -18.34544       -16.20597        -3.92773
   C      -18.03053       -17.15707        -4.92506
   C      -16.78620       -17.06197        -5.61196
   C      -16.47556       -18.01602        -6.60114
   C      -17.35985       -19.01540        -6.89658
   C      -18.59012       -19.10789        -6.21735
   C      -18.92006       -18.19857        -5.25167
   F      -19.43833       -20.10016        -6.52601
   F      -17.06182       -19.92137        -7.83939
   C      -15.88079       -16.01871        -5.30649
   C      -16.21203       -15.10370        -4.34458
   C      -15.50698       -13.92081        -3.84606
   C      -14.49600       -13.27912        -4.52503
   C      -13.99523       -12.01157        -4.17836
   N      -13.57442       -10.96405        -3.96426
   C      -13.89238       -13.77811        -5.69422
   N      -13.34419       -14.14938        -6.63334
   H       -0.86385         0.53747        -8.04130
   H       -4.81424        -2.36178        -8.78184
   H       -0.43211        -0.55564        -5.90156
   H       -4.39665        -3.50022        -6.59978
   H       -0.37311        -4.41137        -1.95479
   H       -5.72734        -7.60553         0.16587
   H       -7.28564        -5.77140        -0.27615
   H       -6.50557        -3.67458        -1.28825
   H       -4.14119        -3.38627        -1.90292
   H       -2.06083        -9.30706         0.13564
   H       -5.01605        -9.34118        -0.65777
   H       -6.11083       -11.31094        -0.47248
   H       -2.24277       -14.02065         1.41143
   H       -7.64639       -16.91556         0.41834
   H       -5.79648       -18.58522         1.19063
   H       -8.54453       -14.53619        -0.30702
   H       -7.90322       -11.61741         0.34246
   H      -13.45008        -9.69784        -1.39430
   H      -12.38440        -7.58940        -0.73514
   H      -10.09859        -7.56239         0.16521
   H       -8.80340        -9.63906         0.34888
   H      -13.49587       -13.67411        -1.93635
   H      -14.69842       -11.19435        -0.62556
   H      -16.78677       -12.22424        -1.12309
   H      -19.28207       -16.26442        -3.39451
   H      -15.53923       -17.95725        -7.13384
   H      -19.86634       -18.28265        -4.74055
   H      -14.94403       -15.97575        -5.83879
*
