# ORCA input file
# SCF done       -210.335310429538          0.000742764147
! CAM-B3LYP def2-SVP def2/J RIJCOSX Grid4 TightSCF
%maxcore 5000
%tddft
    Mode sTDDFT
    Ethresh 5.0
    maxcore 5000
end

%pal
  nprocs 6
  end
* xyz 0 1
   C       -7.16157         1.45717         0.70378
   C       -6.64285         2.54818         0.06507
   F       -7.07444         3.77724         0.37317
   C       -5.64879         2.39591        -0.92389
   F       -5.15912         3.48367        -1.53156
   C       -5.18723         1.15398        -1.25963
   C       -5.70017         0.00949        -0.61784
   C       -6.70560         0.16212         0.38243
   C       -7.23172        -0.97001         1.04272
   C       -6.76558        -2.21741         0.71490
   C       -5.76467        -2.36174        -0.28919
   C       -5.23749        -1.28449        -0.94309
   C       -5.44571        -3.78691        -0.46639
   O       -4.59440        -4.27802        -1.16801
   C       -6.39828        -4.51457         0.42863
   C       -7.09705        -3.53113         1.24387
   C       -7.84764        -3.78892         2.35620
   C       -7.97063        -5.05243         2.96531
   N       -8.05713        -6.03011         3.56380
   C       -8.51079        -2.79897         3.11504
   N       -9.08602        -2.04984         3.76579
   C       -6.59995        -5.84401         0.40305
   C       -5.89399        -6.77907        -0.44004
   S       -5.11616        -8.10188         0.32274
   C       -4.57070        -8.75520        -1.20116
   C       -4.98030        -7.94860        -2.25572
   C       -5.73726        -6.83327        -1.81371
   N       -6.32200        -5.89717        -2.71791
   O       -7.18620        -5.16087        -2.28085
   O       -5.93588        -5.91252        -3.86243
   C       -4.68822        -8.24446        -3.60242
   N       -4.42727        -8.55273        -4.67445
   C       -3.80603        -9.95218        -1.25515
   C       -3.48685       -10.59297        -0.10279
   C       -2.74542       -11.76862         0.17593
   S       -2.59607       -12.08199         1.88437
   C       -1.64188       -13.51579         1.64061
   C       -1.44548       -13.72851         0.27760
   C       -2.06502       -12.75269        -0.54367
   N       -1.96116       -12.86257        -1.95959
   O       -2.67305       -12.16145        -2.64861
   O       -1.16303       -13.67015        -2.38615
   C       -0.71002       -14.84013        -0.17970
   N       -0.10698       -15.78505        -0.42121
   C       -1.18484       -14.29961         2.71953
   C       -1.43028       -13.96553         4.02128
   C       -1.03515       -14.71848         5.13251
   C       -1.29431       -14.34718         6.43078
   C       -0.97507       -15.07144         7.60494
   C       -1.36679       -14.46469         8.75861
   C       -2.00627       -13.21729         8.55948
   S       -2.10705       -12.84826         6.85968
   C       -2.49747       -12.36778         9.53538
   C       -2.54421       -12.59001        10.92793
   C       -3.10397       -11.56346        11.62569
   C       -3.54355       -10.47865        10.82697
   S       -3.19330       -10.80658         9.14989
   C       -4.06761        -9.30645        11.34701
   C       -4.51280        -8.14826        10.72004
   C       -4.88650        -7.85795         9.41878
   C       -4.84191        -6.43933         8.99051
   O       -4.63288        -5.46984         9.68194
   C       -5.06881        -6.46441         7.52178
   C       -5.32600        -7.78856         7.12538
   C       -5.55352        -8.07403         5.79052
   C       -5.51213        -7.03529         4.86155
   C       -5.24706        -5.71787         5.26787
   C       -5.03532        -5.42520         6.61962
   C       -5.22102        -4.65866         4.33053
   N       -5.22028        -3.75018         3.63126
   C       -5.67430        -7.31749         3.40868
   O       -5.09584        -6.68120         2.56206
   O       -6.45022        -8.34499         3.06652
   C       -5.32444        -8.64805         8.31377
   C       -5.85232        -9.92350         8.35783
   C       -6.15071       -10.59514         9.55766
   N       -6.42939       -11.15869        10.51836
   C       -6.24669       -10.63956         7.21457
   N       -6.54872       -11.25722         6.29375
   H       -7.92034         1.59148         1.45891
   H       -4.42710         1.05468        -2.01865
   H       -7.99437        -0.82511         1.79106
   H       -4.47924        -1.41940        -1.69942
   H       -7.30679        -6.29849         1.08605
   H       -3.51045       -10.31744        -2.22770
   H       -3.84914       -10.13020         0.81111
   H       -0.62548       -15.19207         2.47363
   H       -1.98136       -13.05274         4.22060
   H       -0.50840       -15.64918         4.97005
   H       -0.47116       -16.02039         7.55693
   H       -1.20865       -14.87212         9.74030
   H       -2.18039       -13.49684        11.37502
   H       -3.23396       -11.55491        12.69279
   H       -4.03846        -9.26156        12.42921
   H       -4.51767        -7.26496        11.35393
   H       -5.71405        -9.08961         5.46227
   H       -4.84509        -4.41402         6.94552
   H       -6.97683        -8.69080         3.80209
*
