# ORCA input file
# SCF done       -162.347792996499          0.000559024934
! CAM-B3LYP def2-SVP def2/J RIJCOSX Grid4 TightSCF
%maxcore 5000
%tddft
    Mode sTDDFT
    Ethresh 5.0
    maxcore 5000
end

%pal
  nprocs 6
  end
* xyz 0 1
   C       -4.30015        -1.68811        -4.09544
   C       -3.04653        -2.27089        -3.99203
   C       -2.85192        -3.47389        -3.22036
   N       -1.64620        -4.02484        -3.15685
   C       -0.62313        -3.47710        -3.78760
   C       -0.82149        -2.27833        -4.54112
   N       -1.99685        -1.70995        -4.63053
   C        0.28123        -1.69350        -5.21837
   N        1.18999        -1.24878        -5.75394
   C        0.64397        -4.09417        -3.71159
   N        1.68309        -4.57742        -3.66834
   C       -3.89946        -4.12989        -2.50732
   C       -5.17894        -3.52848        -2.65342
   C       -5.35453        -2.31902        -3.44187
   N       -6.62798        -1.91767        -3.46269
   S       -7.51513        -2.93925        -2.60473
   N       -6.33723        -3.94354        -2.15386
   C       -3.57073        -5.28863        -1.77117
   S       -1.93901        -5.90375        -1.84727
   C       -2.30657        -7.30260        -0.81918
   C       -3.64890        -7.23891        -0.43289
   C       -4.34903        -6.10890        -0.91992
   C       -5.64637        -6.02588        -0.36795
   C       -5.91010        -7.04407         0.50039
   C       -7.11851        -7.29363         1.28619
   O       -7.26889        -8.24774         2.01036
   O       -8.03576        -6.33159         1.11054
   C       -9.23776        -6.48885         1.85065
   S       -4.59306        -8.17076         0.67339
   C       -1.25620        -8.13699        -0.48313
   C       -1.29240        -9.40531         0.09114
   C       -2.32753       -10.34675         0.16162
   C       -1.95771       -11.53939         0.73457
   C       -0.62625       -11.56844         1.16688
   S        0.17072       -10.07099         0.78425
   C        0.02846       -12.60660         1.84221
   C       -0.43463       -13.90493         2.07836
   C        0.45095       -14.67891         2.78863
   C        1.63101       -14.01645         3.16377
   S        1.60442       -12.38351         2.54746
   C        2.63830       -14.58801         3.94458
   C        3.77372       -14.02900         4.50703
   C        4.19937       -12.69652         4.35244
   C        5.30812       -12.31136         5.10119
   C        5.87313       -13.29853         5.91279
  Si        4.96610       -14.91453         5.66969
   C        6.95323       -13.13160         6.79791
   C        7.63239       -11.91870         7.12385
   C        8.73242       -11.91354         8.06546
   N        9.36655       -10.75509         8.35414
   C        8.96236        -9.65270         7.77917
   C        7.85909        -9.65406         6.86709
   N        7.23320       -10.77404         6.56692
   C        7.41499        -8.44821         6.27683
   N        7.07025        -7.46006         5.80869
   C        9.62315        -8.43136         8.07305
   N       10.12767        -7.42487         8.28287
   C        9.17622       -13.06978         8.70102
   C        8.51866       -14.26025         8.41018
   C        7.42149       -14.28502         7.47495
   N        6.91553       -15.50396         7.32626
   S        7.73977       -16.52752         8.27176
   N        8.76900       -15.47789         8.90765
   H       -4.44938        -0.79148        -4.67077
   H       -6.35139        -5.25094        -0.59702
   H       -9.86460        -5.63937         1.59315
   H       -9.02495        -6.49925         2.92170
   H       -9.72941        -7.42617         1.58242
   H       -0.27142        -7.74071        -0.70030
   H       -3.30157       -10.16098        -0.24963
   H       -2.62312       -12.37373         0.86115
   H       -1.38618       -14.25309         1.72022
   H        0.27028       -15.70408         3.05958
   H        2.46331       -15.63127         4.18232
   H        3.71141       -11.98740         3.70212
   H        5.69613       -11.30683         5.05823
   H        4.24814       -15.41811         6.83776
   H        5.70356       -15.93269         4.92694
   H       10.00013       -13.02638         9.39199
*
