# ORCA input file
# SCF done       -186.089048667264          0.000420263167
! CAM-B3LYP def2-SVP def2/J RIJCOSX Grid4 TightSCF
%maxcore 5000
%tddft
    Mode sTDDFT
    Ethresh 5.0
    maxcore 5000
end

%pal
  nprocs 6
  end
* xyz 0 1
   C       12.32244       -21.07483        -4.76333
   C       12.32175       -19.84284        -4.12140
   C       11.09482       -19.20843        -3.70835
   N       11.13840       -18.01933        -3.10356
   C       12.30337       -17.44496        -2.88477
   C       13.52130       -18.08318        -3.28479
   N       13.51049       -19.24351        -3.88666
   C       14.76351       -17.44734        -3.02568
   N       15.74611       -16.90555        -2.79687
   C       12.34067       -16.18413        -2.24518
   N       12.40962       -15.16399        -1.72676
   C        9.80786       -19.81725        -3.91434
   C        9.84035       -21.07688        -4.57503
   C       11.09336       -21.68044        -4.99334
   N       10.90669       -22.85285        -5.60788
   S        9.33823       -23.16804        -5.66551
   N        8.80837       -21.84327        -4.91342
   C        8.69704       -19.08826        -3.45873
   C        7.34479       -19.36655        -3.38521
   C        6.58013       -20.50766        -3.69240
   C        5.24718       -20.37657        -3.41953
   C        4.88935       -19.12182        -2.89057
   S        6.29318       -18.10750        -2.74310
   C        3.60814       -18.71297        -2.52154
   C        2.43452       -19.48393        -2.56222
   C        1.32329       -18.81677        -2.12579
   C        1.56592       -17.48669        -1.72827
   S        3.26464       -17.11125        -1.92083
   C        0.58284       -16.63157        -1.25918
   C        0.68107       -15.30233        -0.86764
   C        1.77668       -14.42597        -0.84484
   C        1.43264       -13.16734        -0.39880
   C        0.05375       -13.04374        -0.05972
   S       -0.79989       -14.50543        -0.30523
   C       -0.19254       -11.74336         0.36997
   C        1.02498       -11.00382         0.31334
   C        2.07552       -11.88395        -0.17125
   C        3.38834       -11.56594        -0.37627
   C        3.88224       -10.27142        -0.11727
   N        4.26719        -9.21227         0.09726
   C        4.31935       -12.50720        -0.86194
   N        5.07119       -13.27600        -1.26004
   C        0.88614        -9.69227         0.71166
   C       -0.42918        -9.37652         1.08586
   S       -1.49593       -10.78752         0.92674
   C       -1.01495        -8.19908         1.53397
   C       -0.46543        -6.94170         1.73694
   C        0.83162        -6.42028         1.56997
   C        0.93707        -5.09064         1.88373
   C       -0.26888        -4.50805         2.31037
   S       -1.54673        -5.68324         2.30928
   C       -0.51241        -3.18895         2.69585
   C        0.38929        -2.11652         2.75656
   C       -0.20020        -0.95653         3.17817
   C       -1.58102        -1.06570         3.46512
   S       -2.11996        -2.69981         3.18155
   C       -2.32644         0.01577         3.90439
   C       -3.67437         0.15959         4.24910
   C       -4.67321        -0.85723         4.22207
   C       -6.04389        -0.58519         4.60664
   N       -6.95917        -1.57993         4.56737
   C       -6.58355        -2.77069         4.17909
   C       -5.23379        -3.04364         3.79667
   N       -4.32953        -2.07804         3.83305
   C       -4.85605        -4.33662         3.37964
   N       -4.59458        -5.40342         3.04614
   C       -7.54006        -3.81940         4.13562
   N       -8.28113        -4.69124         4.08944
   C       -6.45296         0.67516         5.01841
   C       -5.49858         1.69015         5.05337
   C       -4.12613         1.44249         4.67499
   N       -3.37679         2.53391         4.77647
   S       -4.29795         3.75345         5.29491
   N       -5.69008         2.96135         5.41676
   H       13.24588       -21.53505        -5.06881
   H        8.97875       -18.11547        -3.06980
   H        7.03777       -21.38606        -4.10675
   H        4.52431       -21.15320        -3.59209
   H        2.42774       -20.50348        -2.90118
   H        0.33801       -19.24574        -2.08232
   H       -0.40734       -17.06637        -1.19546
   H        2.76337       -14.72151        -1.15038
   H        1.68912        -8.98156         0.73849
   H       -2.07339        -8.27003         1.75498
   H        1.66393        -7.00547         1.22691
   H        1.85155        -4.52956         1.81377
   H        1.42931        -2.20682         2.49774
   H        0.32008        -0.02153         3.29170
   H       -1.76329         0.93747         4.00534
   H       -7.47673         0.85136         5.29922
*
