# ORCA input file
# SCF done       -142.205628709208          0.000767532513
! CAM-B3LYP def2-SVP def2/J RIJCOSX Grid4 TightSCF
%maxcore 5000
%tddft
    Mode sTDDFT
    Ethresh 5.0
    maxcore 5000
end

%pal
  nprocs 6
  end
* xyz 0 1
   C        4.16951       -13.93421         5.76758
   C        4.83550       -12.77229         5.79629
   C        5.79267       -12.33321         6.77274
   C        6.30440       -11.10659         6.53575
   C        5.79756       -10.47940         5.35977
   S        4.63742       -11.51323         4.56565
   C        6.14265        -9.24251         4.86405
   C        7.06898        -8.31432         5.39902
   C        7.19800        -7.18333         4.65691
   C        6.38505        -7.15143         3.49303
   S        5.43699        -8.61346         3.38400
   C        6.36082        -6.11879         2.58379
   C        5.58662        -6.04696         1.42331
   C        5.58468        -5.03560         0.43683
   N        6.38216        -3.87457         0.54941
   O        6.75073        -3.52724         1.66132
   O        6.67667        -3.26974        -0.46738
   C        4.73152        -5.29856        -0.65635
   C        4.51524        -4.38094        -1.80491
   C        4.05298        -6.50618        -0.50945
   S        4.48344        -7.30405         0.98313
   C        3.18452        -7.13939        -1.43932
   C        2.37824        -8.27261        -1.27212
   N        2.11976        -8.84378        -0.00093
   O        2.04745        -8.08069         0.94937
   O        1.96852       -10.04784         0.08556
   C        1.75531        -8.73305        -2.45722
   C        0.81449        -9.88568        -2.52465
   C        2.09408        -7.95442        -3.55028
   S        3.18923        -6.67535        -3.10550
   C        1.59931        -8.04526        -4.88556
   C        2.13684        -7.54429        -6.07093
   N        3.45284        -7.02594        -6.16428
   O        4.27768        -7.41654        -5.35325
   O        3.70047        -6.23874        -7.05484
   C        1.30928        -7.69374        -7.21567
   C        1.76037        -7.41021        -8.60462
   C        0.10447        -8.29008        -6.90333
   S        0.03162        -8.71081        -5.20557
   C       -1.02135        -8.63552        -7.70175
   C       -1.56103        -7.94442        -8.74582
   C       -2.68299        -8.37681        -9.51512
   C       -3.08478        -7.50121       -10.46701
   C       -2.32001        -6.30545       -10.51290
   S       -1.06734        -6.34546        -9.28365
   C       -2.46478        -5.24041       -11.36444
   C       -3.43159        -5.08483       -12.40088
   C       -3.32696        -3.92887       -13.08913
   C       -2.26242        -3.06986       -12.65057
   S       -1.41333        -3.84026       -11.30063
   C       -1.92073        -1.87238       -13.14246
   H        4.31920       -14.67355         6.53469
   H        3.46945       -14.16412         4.98533
   H        6.05275       -12.95956         7.60740
   H        7.03220       -10.62021         7.16022
   H        7.61015        -8.50647         6.30776
   H        7.85048        -6.36346         4.89900
   H        7.00538        -5.27550         2.79181
   H        4.86780        -3.37970        -1.57628
   H        3.46139        -4.34274        -2.07422
   H        5.07667        -4.73151        -2.67141
   H        0.93009       -10.52704        -1.65621
   H        0.99804       -10.47440        -3.42096
   H       -0.21482        -9.52652        -2.56202
   H        1.64488        -6.35322        -8.84093
   H        1.18237        -7.99659        -9.31382
   H        2.81515        -7.65034        -8.71984
   H       -1.56501        -9.51507        -7.37887
   H       -3.14097        -9.33298        -9.33273
   H       -3.90560        -7.67326       -11.13989
   H       -4.16966        -5.84277       -12.59507
   H       -3.96455        -3.63709       -13.90473
   H       -2.46507        -1.44009       -13.96341
   H       -1.10015        -1.30820       -12.73860
*
