# ORCA input file
# SCF done       -172.587815323966          0.000620774382
! CAM-B3LYP def2-SVP def2/J RIJCOSX Grid4 TightSCF
%maxcore 5000
%tddft
    Mode sTDDFT
    Ethresh 5.0
    maxcore 5000
end

%pal
  nprocs 6
  end
* xyz 0 1
   C        4.73235         2.62213         3.86512
   C        5.48588         1.52835         4.03712
   C        6.79442         1.44471         4.62225
   C        7.31016         0.19747         4.66388
   C        6.46209        -0.80734         4.11637
   S        4.96558        -0.09230         3.54705
   C        6.71610        -2.15169         4.01437
   C        7.87407        -2.86124         4.42525
   C        7.82724        -4.19209         4.17003
   C        6.63172        -4.63391         3.53349
   S        5.55760        -3.25849         3.29586
   C        6.32886        -5.93292         3.24287
   C        5.16289        -6.43499         2.61088
   S        4.57099        -8.00675         3.11242
   C        3.20958        -7.92470         2.02274
   C        3.20564        -6.70687         1.36279
   C        4.33238        -5.90366         1.63950
   C        4.62967        -4.75439         0.72612
   C        4.60898        -5.24341        -0.71641
   S        2.98115        -5.95991        -1.15999
   O        3.18673        -7.26588        -1.72821
   O        2.24164        -5.00759        -1.94290
   C        2.16632        -6.16324         0.46695
   C        2.35399        -9.05182         1.89536
   C        1.68505        -9.36464         0.75430
   C        0.81608       -10.46033         0.56818
   S        0.13800       -10.67879        -1.02536
   C       -0.77162       -12.10556        -0.58132
   C       -0.53666       -12.36965         0.76034
   C        0.34567       -11.46529         1.41763
   C        0.52686       -11.81439         2.77559
   C       -0.17739       -12.92966         3.12330
   C       -0.22905       -13.59209         4.42519
   O       -0.88502       -14.57394         4.67054
   O        0.55250       -12.97217         5.32921
   C        0.56774       -13.55705         6.62275
   S       -1.11287       -13.61754         1.81638
   C       -1.61172       -12.82213        -1.46652
   S       -2.55988       -14.14124        -0.81783
   C       -3.27543       -14.48384        -2.37133
   C       -2.79162       -13.59279        -3.32572
   C       -1.85748       -12.67185        -2.82609
   C       -1.19359       -11.73373        -3.78577
   C       -0.42868       -12.54089        -4.82216
   S       -1.56720       -13.67387        -5.70418
   O       -1.05739       -15.01297        -5.59919
   O       -1.80948       -13.15851        -7.02548
   C       -3.14086       -13.57072        -4.75958
   C       -4.20887       -15.52487        -2.53655
   C       -4.63372       -16.34445        -1.52925
   C       -5.56111       -17.37799        -1.70468
   C       -5.99878       -18.20818        -0.70122
   C       -6.93229       -19.26748        -0.82378
   C       -7.18559       -19.92935         0.33675
   C       -6.46588       -19.43102         1.45015
   S       -5.45200       -18.08629         0.96223
   C       -6.50529       -19.88117         2.74990
   C       -7.28267       -20.95486         3.26759
   C       -7.12117       -21.17137         4.59176
   C       -6.19566       -20.27872         5.22869
   S       -5.55102       -19.15209         4.02401
   C       -5.83777       -20.25189         6.52004
   H        5.08635         3.58783         4.17998
   H        3.75935         2.57337         3.41206
   H        7.28876         2.32846         4.98475
   H        8.27677        -0.04680         5.06738
   H        8.70205        -2.36472         4.89849
   H        8.61213        -4.88701         4.41178
   H        7.01428        -6.67991         3.62356
   H        5.61670        -4.34458         0.94049
   H        3.89867        -3.95185         0.85586
   H        5.33209        -6.03777        -0.87999
   H        4.77130        -4.43241        -1.42001
   H        1.29519        -6.79673         0.34860
   H        1.86537        -5.15862         0.75776
   H        2.32204        -9.71969         2.74278
   H        1.85445        -8.76738        -0.13189
   H        1.13745       -11.28531         3.48200
   H        1.21751       -12.93193         7.22980
   H        0.95287       -14.57784         6.57268
   H       -0.44143       -13.58377         7.03932
   H       -0.51052       -11.05393        -3.27866
   H       -1.95151       -11.12694        -4.28991
   H        0.32672       -13.17300        -4.36458
   H        0.01346       -11.91038        -5.58752
   H       -3.74416       -14.41455        -5.07643
   H       -3.60291       -12.63765        -5.07604
   H       -4.60340       -15.67543        -3.53225
   H       -4.23600       -16.19313        -0.53287
   H       -5.96550       -17.54288        -2.69518
   H       -7.38550       -19.50417        -1.77056
   H       -7.86583       -20.75745         0.42450
   H       -7.93594       -21.52929         2.63490
   H       -7.62388       -21.93606         5.15698
   H       -6.25418       -20.95429         7.22042
   H       -5.13035       -19.53527         6.89487
*
