# ORCA input file
# SCF done       -165.895923835763          0.000523879868
! CAM-B3LYP def2-SVP def2/J RIJCOSX Grid4 TightSCF
%maxcore 5000
%tddft
    Mode sTDDFT
    Ethresh 5.0
    maxcore 5000
end

%pal
  nprocs 6
  end
* xyz 0 1
   C       -4.48367        -0.52413        -2.92836
   O       -5.09451        -1.56096        -3.06267
   C       -4.38465         0.56896        -3.92161
   C       -3.80791         1.70153        -3.32174
   C       -3.63617         2.85832        -4.06908
   C       -4.03597         2.86194        -5.39695
   C       -4.60266         1.73021        -5.96749
   C       -4.79348         0.56430        -5.23855
  Br       -5.12823         1.78150        -7.79234
   C       -3.48220         1.38656        -1.93216
   C       -2.89701         2.24812        -1.03999
   C       -2.56103         3.58615        -1.33356
   N       -2.26860         4.68316        -1.50498
   C       -2.55139         1.93436         0.29085
   N       -2.23786         1.76051         1.38216
   C       -3.83478         0.00033        -1.70222
   C       -3.73078        -0.68692        -0.52666
   C       -3.85505        -2.09612        -0.37538
   C       -4.30134        -2.66622         0.81625
   C       -4.48894        -4.03117         0.99821
   C       -4.20177        -4.97767         0.01552
   C       -3.64634        -4.44348        -1.18486
   C       -3.47523        -3.02718        -1.38056
   N       -2.86909        -2.86607        -2.53904
   O       -2.69133        -4.07971        -3.04658
   N       -3.15543        -5.04669        -2.24922
   C       -4.40683        -6.37339         0.16160
   N       -4.09729        -7.24899        -0.85646
   C       -4.39534        -8.50444        -0.44952
   C       -4.39815        -9.84065        -0.82995
   C       -4.91001       -10.55531         0.26290
   N       -5.21436        -9.68146         1.28490
   C       -4.91201        -8.42172         0.87727
   C       -4.92167        -7.08995         1.25843
   C       -5.10633       -11.95570         0.34785
   C       -5.57886       -12.60325         1.44231
   C       -5.78294       -13.99948         1.53361
   S       -5.48566       -15.06471         0.18721
   C       -6.22872       -14.70550         2.64827
   C       -6.55797       -14.07443         3.93552
   O       -6.49631       -12.87107         4.15443
   C       -6.97092       -15.03967         4.93923
   C       -7.33033       -14.83593         6.25388
   N       -7.62433       -16.03377         6.81255
   C       -8.10192       -16.22773         8.15816
   C       -9.62565       -16.14032         8.21839
   C       -7.47798       -17.01199         5.88730
   C       -7.06620       -16.44045         4.70339
   C       -6.76644       -17.07375         3.42937
   O       -6.87107       -18.27721         3.24430
   C       -6.32855       -16.10600         2.40860
   C       -5.96423       -16.46005         1.11398
   C       -5.96217       -17.76069         0.54572
   C       -5.59730       -18.02926        -0.72600
   C       -5.59333       -19.32655        -1.34427
   C       -5.98943       -20.50364        -0.73087
   C       -5.96945       -21.74111        -1.39049
   C       -5.55469       -21.87125        -2.69077
   C       -5.14022       -20.71060        -3.36248
   C       -5.15867       -19.43677        -2.69337
   N       -4.73378       -18.45219        -3.48315
   S       -4.35161       -19.07050        -4.91836
   N       -4.70133       -20.60842        -4.61918
   H       -3.20336         3.74942        -3.64526
   H       -3.90700         3.75235        -5.99306
   H       -5.23560        -0.31735        -5.67584
   H       -3.55102        -0.13608         0.38799
   H       -4.56035        -2.00144         1.62789
   H       -4.88168        -4.37228         1.94279
   H       -3.69953        -6.94377        -1.73356
   H       -4.08036       -10.27023        -1.75819
   H       -5.59266        -9.95312         2.17594
   H       -5.24732        -6.67208         2.18906
   H       -4.85051       -12.52317        -0.53726
   H       -5.82934       -12.06353         2.34451
   H       -7.38089       -13.92048         6.80928
   H       -7.65793       -15.46079         8.79814
   H       -7.76981       -17.20905         8.50675
   H       -9.96284       -15.16674         7.87079
   H       -9.96597       -16.28376         9.23991
   H      -10.07386       -16.90582         7.58960
   H       -7.66022       -18.04346         6.11494
   H       -6.28413       -18.54321         1.21751
   H       -5.27335       -17.22035        -1.37016
   H       -6.32963       -20.47622         0.29243
   H       -6.29460       -22.61666        -0.84810
   H       -5.53932       -22.82092        -3.20001
*
