# ORCA input file
# SCF done       -195.545371967225          0.000486166063
! CAM-B3LYP def2-SVP def2/J RIJCOSX Grid4 TightSCF
%maxcore 5000
%tddft
    Mode sTDDFT
    Ethresh 5.0
    maxcore 5000
end

%pal
  nprocs 6
  end
* xyz 0 1
   C       -6.40275        -1.88108         2.92258
   O       -6.12637        -3.06114         3.05893
   C       -7.48436        -1.15229         3.60662
   C       -7.50575         0.17930         3.15458
   C       -8.44060         1.05786         3.68208
   C       -9.32022         0.59681         4.65243
   C       -9.27129        -0.72103         5.08719
   C       -8.35650        -1.62439         4.56253
  Br      -10.47278        -1.30951         6.43882
   C       -6.44189         0.35464         2.16437
   C       -6.17695         1.51607         1.48275
   C       -6.91426         2.70817         1.64025
   N       -7.47634         3.70586         1.72103
   C       -5.15107         1.68870         0.53160
   N       -4.33753         1.90256        -0.25132
   C       -5.74750        -0.91000         2.04906
   C       -4.64945        -1.17814         1.26087
   C       -3.92250        -2.35985         1.12866
   S       -4.21057        -3.87794         1.94469
   C       -2.84049        -4.65263         1.17942
   C       -2.20957        -3.76762         0.31458
   C       -2.79611        -2.48131         0.28741
   C       -2.10623        -1.59842        -0.56941
   C       -1.03625        -2.20352        -1.16604
   C       -0.06557        -1.62936        -2.10377
   O        0.84768        -2.24943        -2.59073
   O       -0.31607        -0.33780        -2.34454
   C        0.57853         0.31054        -3.23780
   S       -0.82333        -3.87563        -0.71849
   C       -2.53497        -6.00379         1.48031
   C       -3.16648        -6.66106         2.51842
   C       -2.95522        -7.98577         2.86553
   C       -2.03864        -8.83233         2.09962
   C       -1.29394        -8.39181         1.05999
   S       -1.32723        -6.78273         0.46810
   C       -2.11842       -10.11312         2.70851
   C       -2.99951       -10.07852         3.79598
   C       -3.10771       -11.34847         4.40936
   C       -2.32782       -12.27578         3.79484
   S       -1.42880       -11.66271         2.45103
   C       -3.52164        -8.74112         3.92357
   C       -4.36817        -8.20310         4.91334
   C       -4.82182        -8.86436         6.01647
   C       -5.58640        -8.28838         7.05354
   C       -6.06751        -6.98919         7.20293
   C       -6.71685        -6.80628         8.41655
   C       -6.74799        -7.97180         9.21238
   S       -5.97898        -9.29114         8.44578
   C       -7.38553        -7.67467        10.43352
   C       -7.76044        -6.31029        10.41948
   C       -7.37062        -5.72977         9.15091
   C       -7.59126        -4.44524         8.74684
   C       -7.16956        -3.95535         7.49644
   N       -6.81911        -3.53693         6.48751
   C       -8.24944        -3.51361         9.57832
   N       -8.77052        -2.75969        10.26731
   C       -8.38239        -5.90688        11.59000
   C       -8.50091        -6.94087        12.51110
   S       -7.79757        -8.44020        11.89625
   C       -9.00486        -6.91101        13.82287
   C       -9.75458        -5.94847        14.43901
   C       -9.75873        -5.90130        15.92485
   O       -9.34880        -6.75132        16.68069
   C      -10.31487        -4.57274        16.26572
   C      -10.73924        -3.92821        15.08970
   C      -10.53604        -4.83199        13.95718
   C      -11.19823        -4.74127        12.75969
   C      -12.06713        -3.68232        12.42178
   N      -12.79138        -2.84987        12.10764
   C      -11.16926        -5.74574        11.77320
   N      -11.18712        -6.55429        10.95817
   C      -11.25489        -2.64304        15.15520
   C      -11.34969        -2.02683        16.39422
   C      -10.94211        -2.68767        17.54553
   C      -10.41432        -3.97152        17.50320
  Br      -11.10127        -1.80670        19.22122
   H       -8.49694         2.08618         3.36492
   H      -10.04714         1.27139         5.07801
   H       -8.30124        -2.64781         4.89794
   H       -4.26944        -0.36867         0.65190
   H       -2.36650        -0.57089        -0.74738
   H        0.22957         1.33626        -3.32060
   H        0.56485        -0.18187        -4.21221
   H        1.59622         0.28003        -2.84316
   H       -3.87818        -6.07804         3.08687
   H       -0.60953        -9.03184         0.52577
   H       -3.72885       -11.59178         5.25121
   H       -2.22042       -13.31171         4.05080
   H       -4.63721        -7.16304         4.79345
   H       -4.55714        -9.90063         6.15791
   H       -5.93614        -6.22460         6.45938
   H       -8.68760        -4.89852        11.80081
   H       -8.68835        -7.72010        14.47448
   H      -11.56630        -2.11282        14.26996
   H      -11.74264        -1.02429        16.46583
   H      -10.09136        -4.48476        18.39562
*
