# ORCA input file
# SCF done       -180.357973330172          0.000805347948
! CAM-B3LYP def2-SVP def2/J RIJCOSX Grid4 TightSCF
%maxcore 5000
%tddft
    Mode sTDDFT
    Ethresh 5.0
    maxcore 5000
end

%pal
  nprocs 6
  end
* xyz 0 1
   C        0.21035        -6.33202        -2.43857
   O       -0.00798        -7.46482        -2.05638
   C        1.49630        -5.82086        -2.97030
   C        1.35619        -4.46382        -3.30743
   C        2.44003        -3.77376        -3.82723
   C        3.64122        -4.44751        -4.00165
   C        3.75479        -5.78738        -3.66187
   C        2.68345        -6.50032        -3.13923
  Br        5.41932        -6.66940        -3.92023
   C       -0.01670        -4.04618        -3.01033
   C       -0.51766        -2.78023        -3.22027
   C        0.23207        -1.71269        -3.75112
   N        0.78282        -0.80012        -4.18037
   C       -1.83302        -2.35824        -2.94551
   N       -2.88141        -1.92696        -2.75408
   C       -0.71348        -5.18447        -2.47903
   C       -2.03693        -5.22673        -2.06656
   C       -2.67965        -6.34699        -1.56792
   C       -4.01405        -6.34128        -1.17627
   C       -4.75403        -7.42424        -0.67731
   C       -6.06196        -7.11837        -0.38568
   C       -6.39267        -5.78289        -0.64339
   S       -5.01950        -4.91208        -1.26232
   C       -7.63364        -5.15194        -0.46647
   C       -8.83007        -5.70971        -0.01482
   C       -9.87449        -4.80815         0.02523
   C       -9.52703        -3.52297        -0.38849
   S       -7.84304        -3.46268        -0.83447
   C      -10.37217        -2.40291        -0.47061
   C       -9.97026        -1.16394        -0.87503
   C      -10.80904        -0.04277        -0.99699
   C      -10.43652         1.23292        -1.40942
   C      -11.48555         2.13178        -1.46500
   C      -12.70823         1.57954        -1.09626
   S      -12.52082        -0.09595        -0.66380
   C      -13.96748         2.21182        -1.07897
   C      -14.26633         3.51778        -1.45498
   C      -15.61154         3.82220        -1.36372
   C      -16.39843         2.76856        -0.90790
   S      -15.40846         1.36833        -0.58710
   C      -17.79275         2.77692        -0.73659
   C      -18.53070         1.74304        -0.23829
   C      -19.92905         1.76343        -0.10696
   C      -20.73559         0.78143         0.46807
   C      -22.08133         1.08484         0.45695
   C      -22.36742         2.31225        -0.14331
   S      -20.90434         3.08951        -0.68285
   C      -23.61425         2.92372        -0.32456
   C      -24.86604         2.52244         0.15519
   C      -25.87753         3.39074        -0.17037
   C      -25.46312         4.51644        -0.90733
   S      -23.74873         4.41823        -1.20869
   C      -26.31606         5.50013        -1.40084
   C      -26.03855         6.63475        -2.14737
   C      -24.86205         7.32553        -2.40697
   C      -24.78978         8.13209        -3.64755
   O      -25.69574         8.39201        -4.40830
   C      -23.36341         8.51747        -3.77963
   C      -22.66130         8.07321        -2.64589
   C      -23.60960         7.43289        -1.73056
   C      -23.36408         7.16897        -0.39786
   C      -22.09843         7.26261         0.20575
   N      -21.07842         7.27721         0.73526
   C      -24.37907         6.83866         0.51814
   N      -25.18361         6.58453         1.29772
   C      -21.29823         8.29657        -2.54992
   C      -20.65718         8.96199        -3.58649
   C      -21.37167         9.40154        -4.69057
   C      -22.73963         9.18858        -4.80897
  Br      -20.45007        10.31286        -6.08288
   H        2.37520        -2.73287        -4.09772
   H        4.49456        -3.92438        -4.40524
   H        2.76672        -7.54275        -2.87346
   H       -2.62156        -4.31798        -2.13959
   H       -2.13343        -7.27507        -1.47893
   H       -4.31394        -8.39664        -0.54695
   H       -6.77333        -7.82429         0.00319
   H       -8.91748        -6.74321         0.26668
   H      -10.87190        -5.05591         0.34256
   H      -11.40801        -2.55871        -0.19573
   H       -8.93079        -1.00999        -1.13709
   H       -9.42026         1.47758        -1.66199
   H      -11.37904         3.15821        -1.76465
   H      -13.51681         4.21116        -1.78983
   H      -16.03070         4.77978        -1.61601
   H      -18.30131         3.68788        -1.02724
   H      -18.02661         0.84228         0.08911
   H      -20.32539        -0.12143         0.88466
   H      -22.84688         0.44641         0.85864
   H      -25.00083         1.62868         0.73669
   H      -26.90397         3.25893         0.12105
   H      -27.36646         5.28497        -1.24580
   H      -26.88211         7.03307        -2.70559
   H      -20.72802         7.96032        -1.69941
   H      -19.59420         9.14136        -3.53322
   H      -23.29733         9.52993        -5.66720
*
