# ORCA input file
# SCF done       -145.413904039804          0.000438501119
! CAM-B3LYP def2-SVP def2/J RIJCOSX Grid4 TightSCF
%maxcore 5000
%tddft
    Mode sTDDFT
    Ethresh 5.0
    maxcore 5000
end

%pal
  nprocs 6
  end
* xyz 0 1
   C        1.39835        -8.05891         2.99337
   O        0.35184        -7.78193         3.56669
   C        2.74311        -7.91724         3.59163
   C        3.70082        -8.47065         2.72645
   C        5.03835        -8.45177         3.08900
   C        5.39813        -7.86851         4.29759
   C        4.43545        -7.31663         5.12888
   C        3.08766        -7.33998         4.79468
  Br        4.95727        -6.49451         6.76432
   C        3.01049        -8.95376         1.52911
   C        3.63420        -9.48267         0.42459
   C        5.02077        -9.72036         0.34305
   N        6.14031        -9.94380         0.21634
   C        3.00374        -9.83104        -0.78708
   N        2.57752       -10.11139        -1.81686
   C        1.60089        -8.67725         1.68418
   C        0.62656        -9.08552         0.78236
   C       -0.68905        -8.63236         0.64071
   C       -1.18313        -7.44313         1.16249
   C       -2.45937        -6.95880         0.97036
   C       -3.38464        -7.58163         0.01518
   C       -3.13075        -8.74852        -0.61866
   S       -1.69646        -9.66163        -0.39546
   C       -4.48392        -6.68541        -0.07599
   C       -4.28114        -5.58989         0.77389
   C       -5.35844        -4.67520         0.72943
   C       -6.32302        -5.08328        -0.13312
   S       -5.97448        -6.59016        -0.92024
   C       -3.04604        -5.76201         1.47386
   C       -2.53473        -4.94867         2.50674
   C       -1.66587        -5.43556         3.44058
   C       -0.95059        -4.73782         4.43087
   N       -0.11995        -5.46370         5.25981
   C        0.52505        -4.60700         6.08538
   C        1.44588        -4.52392         7.11933
   C        1.55534        -3.15958         7.43501
   N        0.72173        -2.43012         6.60826
   C        0.06939        -3.28838         5.78085
   C       -0.85225        -3.36950         4.74959
   C        2.34676        -2.52618         8.41876
   C        3.07053        -3.18632         9.36302
   C        3.82414        -2.55959        10.37935
   C        4.18379        -1.14158        10.50506
   N        4.86207        -0.84783        11.57387
   C        5.00355        -2.02850        12.25384
   C        4.38237        -3.12701        11.51010
   C        4.48816        -4.35105        12.25423
   S        3.92641        -5.84099        11.83315
   C        5.17101        -3.97028        13.46614
   C        5.48606        -2.53589        13.43367
   N        6.10071        -2.15387        14.59356
   C        6.16237        -3.22827        15.32463
   C        5.58426        -4.42536        14.69875
   C        5.45824        -5.72906        15.25160
   C        5.82446        -6.08054        16.50343
   C        5.64981        -7.40373        17.02688
   C        5.98325        -7.75251        18.27083
   H        5.80354        -8.87537         2.45986
   H        6.43657        -7.84323         4.59011
   H        2.34376        -6.91292         5.44809
   H        0.91455        -9.86398         0.08597
   H       -0.47855        -6.83148         1.70187
   H       -3.82807        -9.19878        -1.30756
   H       -5.41588        -3.76640         1.30024
   H       -7.24634        -4.59101        -0.36824
   H       -2.88765        -3.92829         2.56672
   H       -1.48728        -6.50143         3.44911
   H        0.03914        -6.45336         5.12044
   H        1.98614        -5.31485         7.59795
   H        0.60608        -1.43234         6.65391
   H       -1.39366        -2.57647         4.27476
   H        2.32986        -1.44358         8.42356
   H        3.05106        -4.26648         9.39159
   H        3.95155        -0.37204         9.78923
   H        6.61574        -3.18932        16.29951
   H        5.01381        -6.47054        14.59917
   H        6.26437        -5.35006        17.16890
   H        5.21677        -8.13395        16.35543
   H        6.41355        -7.04292        18.95876
   H        5.83655        -8.75203        18.64134
*
