# ORCA input file
# SCF done       -222.149846489557          0.000801877148
! CAM-B3LYP def2-SVP def2/J RIJCOSX Grid4 TightSCF
%maxcore 5000
%tddft
    Mode sTDDFT
    Ethresh 5.0
    maxcore 5000
end

%pal
  nprocs 6
  end
* xyz 0 1
   C        5.25756        -0.75673        -8.96826
   C        4.24982        -1.19504        -9.78161
   F        4.44719        -1.24666       -11.11108
   C        3.00387        -1.59970        -9.28323
   C        2.78526        -1.55646        -7.93442
   C        3.79031        -1.11575        -7.04902
   C        5.04981        -0.70536        -7.57631
   C        6.07162        -0.25359        -6.70869
   C        5.83989        -0.22477        -5.36089
   C        4.58573        -0.65317        -4.83677
   C        3.57830        -1.08105        -5.65238
   C        4.61840        -0.57294        -3.36315
   O        3.72342        -0.79717        -2.58242
   C        6.02927        -0.22566        -3.02883
   C        6.68007         0.20382        -4.24687
   C        7.72147         1.09054        -4.33496
   C        8.31193         1.69248        -3.20513
   N        8.78535         2.22281        -2.30371
   C        8.24425         1.56329        -5.55500
   N        8.71089         1.96297        -6.52441
   C        6.49256        -0.46572        -1.77112
   C        7.81435        -0.66687        -1.31831
   C        8.20726        -0.73401         0.01230
   C        9.55508        -1.03968         0.15362
   C       10.19993        -1.23546        -1.08698
   S        9.15116        -1.03255        -2.40937
   C       11.55312        -1.56503        -0.84843
   C       11.76971        -1.57855         0.54240
   C       10.52723        -1.23582         1.21795
   C       10.32288        -1.11017         2.55965
   C       11.34436        -1.25153         3.52481
   N       12.14762        -1.31788         4.33998
   C        9.05353        -0.78558         3.08829
   N        8.02410        -0.52361         3.51877
   C       13.06936        -1.93009         0.88469
   C       13.84897        -2.17527        -0.23573
   S       12.96183        -1.96194        -1.73332
   C       15.20309        -2.59200        -0.22068
   C       16.08705        -2.80127        -1.26860
   C       17.33053        -3.24831        -0.81598
   C       17.36691        -3.37900         0.58261
   S       15.91079        -2.94503         1.34143
   C       18.63235        -3.86649         0.96154
   C       19.42672        -4.04219        -0.18351
   C       18.63027        -3.65216        -1.34309
   C       19.01914        -3.67259        -2.64942
   C       20.31109        -4.08977        -3.03408
   N       21.36129        -4.43409        -3.33869
   C       18.15192        -3.28367        -3.69268
   N       17.44566        -2.96867        -4.53845
   C       20.69197        -4.55163         0.12018
   C       20.85004        -4.77939         1.47677
   S       19.40941        -4.33094         2.39436
   C       21.94918        -5.30811         2.21087
   C       21.80975        -5.58542         3.55328
   C       22.80171        -6.07018         4.38574
   C       24.14982        -6.33427         3.89470
   C       24.51196        -6.15588         2.60162
   S       23.45861        -5.58122         1.37072
   C       24.87734        -6.76756         5.03974
   C       24.05148        -6.76487         6.16991
   C       24.74494        -7.17767         7.32676
   C       26.04343        -7.47577         7.05371
   S       26.47984        -7.27009         5.39441
   C       22.73229        -6.33741         5.77710
   C       21.56013        -6.13745         6.51155
   C       21.32037        -6.28470         7.85541
   C       20.06324        -6.04244         8.42363
   C       18.96579        -5.38340         7.89815
   C       17.62444        -5.71706         8.42854
   O       17.36431        -6.37680         9.40908
   C       16.65735        -5.10967         7.47418
   C       17.37035        -4.35666         6.52558
   C       16.69372        -3.72542         5.49587
   C       15.30743        -3.85588         5.41796
   C       14.60448        -4.61050         6.36768
   C       15.28692        -5.23724         7.41750
   C       13.19488        -4.73180         6.28746
   N       12.05595        -4.84789         6.27302
   C       14.59192        -3.25566         4.24925
   O       13.80177        -3.85953         3.57881
   O       14.94944        -2.00296         3.93102
   C       18.79915        -4.40896         6.85595
   C       19.71778        -3.49004         6.39459
   C       21.04488        -3.39864         6.85386
   N       22.13048        -3.26595         7.20338
   C       19.40790        -2.48728         5.45976
   N       19.19014        -1.66666         4.68437
   H        6.20295        -0.44920        -9.38715
   H        2.24661        -1.93631        -9.97336
   H        1.83388        -1.86353        -7.52688
   H        7.01878         0.04469        -7.13015
   H        2.63161        -1.39343        -5.23781
   H        5.72287        -0.62429        -1.02113
   H        7.52609        -0.54774         0.82297
   H       13.43823        -2.02655         1.89019
   H       15.82015        -2.63332        -2.29672
   H       21.46402        -4.76350        -0.59794
   H       20.83381        -5.39935         3.97937
   H       25.50858        -6.35868         2.24278
   H       24.32300        -7.25037         8.31162
   H       26.79585        -7.81164         7.74020
   H       20.70138        -5.86096         5.91363
   H       22.09254        -6.67449         8.50033
   H       19.86680        -6.50751         9.38502
   H       17.22206        -3.17851         4.72946
   H       14.75318        -5.81358         8.15769
   H       15.53984        -1.58924         4.57570
*
