# ORCA input file
# SCF done       -212.938211799839          0.000941129151
! CAM-B3LYP def2-SVP def2/J RIJCOSX Grid4 TightSCF
%maxcore 5000
%tddft
    Mode sTDDFT
    Ethresh 5.0
    maxcore 5000
end

%pal
  nprocs 6
  end
* xyz 0 1
   C       -8.04932         2.74091         3.81111
   C       -8.84132         3.56987         3.06733
   F       -9.13490         4.79865         3.51230
   C       -9.35955         3.14519         1.82727
   F      -10.13575         3.97829         1.12135
   C       -9.07699         1.89708         1.34727
   C       -8.26501         1.01897         2.09101
   C       -7.74100         1.44679         3.34549
   C       -6.92675         0.58143         4.11151
   C       -6.64807        -0.67344         3.63753
   C       -7.17807        -1.09283         2.38650
   C       -7.96453        -0.27956         1.62294
   C       -6.75535        -2.47967         2.10707
   O       -7.05148        -3.13173         1.12934
   C       -5.98403        -2.90509         3.30046
   C       -5.86163        -1.76903         4.19440
   C       -5.08137        -1.69770         5.31928
   C       -4.24340        -2.72990         5.79191
   N       -3.52563        -3.51618         6.22266
   C       -4.98405        -0.55337         6.13841
   N       -4.86980         0.34347         6.84572
   C       -5.63206        -4.18737         3.62732
   C       -5.61857        -5.33793         2.81630
   C       -5.57736        -5.49430         1.43592
   C       -5.54645        -6.82997         1.06166
   C       -5.57343        -7.71683         2.16320
   S       -5.58746        -6.89895         3.65167
   C       -5.59756        -9.04196         1.67208
   C       -5.57155        -9.00285         0.26593
   C       -5.52050        -7.61182        -0.16282
   C       -5.44865        -7.15060        -1.44358
   C       -5.43636        -8.02774        -2.54940
   N       -5.42709        -8.74538        -3.44355
   C       -5.35790        -5.77717        -1.75932
   N       -5.26109        -4.67080        -2.04189
   C       -5.61611       -10.26877        -0.31243
   C       -5.68727       -11.27093         0.64139
   S       -5.68054       -10.63879         2.27922
   C       -5.79193       -12.66573         0.41763
   C       -5.96836       -13.65958         1.36453
   C       -6.07932       -14.91995         0.78169
   C       -5.97648       -14.88630        -0.62133
   S       -5.74749       -13.30486        -1.22081
   C       -6.12615       -16.20395        -1.11981
   C       -6.33205       -17.07113        -0.03019
   C       -6.30257       -16.29551         1.19929
   C       -6.46025       -16.75504         2.47333
   C       -6.67617       -18.11924         2.76403
   N       -6.85389       -19.22451         3.01187
   C       -6.41826       -15.89097         3.58832
   N       -6.38681       -15.18719         4.49292
   C       -6.52411       -18.39470        -0.41588
   C       -6.45949       -18.55022        -1.79228
   S       -6.15506       -17.02428        -2.61570
   C       -6.62529       -19.71876        -2.57288
   C       -6.90875       -21.01622        -2.14615
   C       -7.05332       -21.90182        -3.22041
   O       -7.36207       -23.21170        -3.16238
   C       -7.86080       -23.69590        -1.93177
   C       -6.96251       -23.32586        -0.76536
   S       -7.03887       -21.52859        -0.47011
   C       -6.84661       -21.30689        -4.48014
   S       -6.48435       -19.61277        -4.30443
   C       -6.97843       -22.05005        -5.65757
   C       -6.81528       -21.65498        -6.96117
   C       -6.99874       -22.47976        -8.13803
   C       -7.43375       -23.77988        -8.18240
   C       -7.59245       -24.51881        -9.37351
   N       -7.74230       -25.17315       -10.30491
   C       -7.79547       -24.56789        -7.06967
   N       -8.11717       -25.27794        -6.22563
   C       -6.65353       -21.66394        -9.29917
   C       -6.28433       -20.36978        -8.85386
   C       -6.38595       -20.32123        -7.38586
   O       -6.15048       -19.35763        -6.67522
   C       -5.90436       -19.36774        -9.71285
   C       -5.88826       -19.65513       -11.08188
   C       -6.25992       -20.94885       -11.51910
   C       -6.64356       -21.96227       -10.64857
   S       -6.17165       -21.08866       -13.24833
   C       -5.64379       -19.43055       -13.35957
   C       -5.53819       -18.80255       -12.16414
  Br       -5.28225       -18.68563       -15.04204
   H       -7.65997         3.08221         4.75758
   H       -9.48086         1.58667         0.39636
   H       -6.55158         0.93162         5.05947
   H       -8.35215        -0.62382         0.67622
   H       -5.36071        -4.37331         4.66034
   H       -5.57038        -4.66413         0.75506
   H       -5.61001       -10.47118        -1.36838
   H       -6.02150       -13.45592         2.41908
   H       -6.70548       -19.20606         0.26296
   H       -7.90821       -24.78006        -2.05852
   H       -8.87398       -23.30812        -1.76187
   H       -5.92725       -23.59997        -0.96992
   H       -7.29803       -23.79687         0.15550
   H       -7.24901       -23.08201        -5.47047
   H       -5.62875       -18.39332        -9.34121
   H       -6.91612       -22.93073       -11.03304
   H       -5.22655       -17.78052       -12.04874
*
