# ORCA input file
# SCF done       -164.488827116244          0.000523288690
! CAM-B3LYP def2-SVP def2/J RIJCOSX Grid4 TightSCF
%maxcore 5000
%tddft
    Mode sTDDFT
    Ethresh 5.0
    maxcore 5000
end

%pal
  nprocs 6
  end
* xyz 0 1
   C        0.46076         3.81009         8.90508
   C       -0.34987         2.95011         8.22822
   C       -0.58828         3.39839         6.91508
   C        0.06184         4.60594         6.63642
   S        0.95540         5.18269         7.97128
   C       -0.23341         4.98275         5.29424
   C       -1.06862         4.00751         4.73420
   C       -1.32544         2.98022         5.73604
   C       -2.10407         1.86998         5.59286
   C       -2.79225         1.58247         4.39465
   N       -3.36222         1.34857         3.42783
   C       -2.28658         0.94059         6.63875
   N       -2.43825         0.18004         7.48331
   C       -1.42162         4.28151         3.41154
   C       -0.85805         5.45988         2.96077
   S        0.11695         6.24198         4.19912
   C       -0.98671         6.08306         1.68914
   S       -0.58658         7.76607         1.50527
   C       -1.00445         7.75326        -0.17906
   C       -1.42877         6.48773        -0.56051
   C       -1.41227         5.54491         0.48161
   S       -1.73628         3.82217         0.30860
   C       -1.80987         3.45702        -1.42653
   O       -1.64848         2.31705        -1.75535
   C       -2.21209         4.49269        -2.45419
   O       -2.67879         4.13768        -3.50089
   S       -2.01249         6.22608        -2.20009
   C       -0.91722         8.90485        -1.00347
   C       -0.46754        10.10600        -0.58194
   C       -0.37931        11.29355        -1.38000
   C       -0.89835        11.44538        -2.66243
   N       -0.78244        12.52735        -3.42529
   C       -0.15317        13.59971        -2.99322
   C        0.35051        13.63371        -1.66732
   C        0.25403        12.45255        -0.85909
   N        0.78819        12.63043         0.34882
   S        1.33593        14.13779         0.45019
   N        0.92256        14.64432        -1.01418
   C        0.01632        14.72513        -3.88331
   C       -0.80906        15.13491        -4.89718
   O       -0.33486        16.24321        -5.47440
   C        0.80642        16.56863        -4.84730
   C        1.08618        15.67861        -3.85075
   C        2.31146        15.59829        -3.02032
   O        2.98337        14.58508        -2.96177
   C        2.66779        16.82282        -2.32895
   C        1.95986        17.99105        -2.17233
   C        2.63753        18.94585        -1.41055
   C        3.86670        18.51715        -0.96376
   S        4.18465        16.89521        -1.49467
   C        4.83452        19.31418        -0.23183
   C        5.70207        18.78458         0.67715
   O        6.62210        19.50712         1.33730
   C        6.74663        20.83443         1.09697
   C        7.73965        21.53070         1.78663
   C        7.89419        22.88205         1.56908
   C        7.06881        23.55383         0.67003
   C        6.08833        22.86766        -0.00826
   C        5.91235        21.49606         0.19538
   C        4.86442        20.76069        -0.52739
   O        4.10738        21.31397        -1.30548
   C        5.75113        17.35068         1.09574
   H        0.80916         3.72607         9.91494
   H       -0.75012         2.04757         8.65242
   H       -2.07569         3.67093         2.81882
   H       -1.23606         8.75953        -2.02611
   H       -0.12421        10.21420         0.43981
   H       -1.44640        10.63889        -3.12889
   H       -1.73266        14.72758        -5.25562
   H        1.34622        17.42205        -5.20779
   H        0.98048        18.14408        -2.58716
   H        2.24903        19.92335        -1.19494
   H        8.36918        20.99272         2.47759
   H        8.66261        23.42290         2.10014
   H        7.20128        24.61239         0.50825
   H        5.43206        23.35800        -0.71099
   H        6.28755        16.75793         0.35639
   H        4.75150        16.93794         1.19997
   H        6.28077        17.28093         2.04289
*
