# ORCA input file
# SCF done       -209.648934566798          0.000753158862
! CAM-B3LYP def2-SVP def2/J RIJCOSX Grid4 TightSCF
%maxcore 5000
%tddft
    Mode sTDDFT
    Ethresh 5.0
    maxcore 5000
end

%pal
  nprocs 6
  end
* xyz 0 1
   C        3.55571         3.85712         4.96865
   C        4.05752         4.72917         4.05003
   C        3.10722         5.02535         3.05474
   C        1.89656         4.35533         3.25611
   S        1.92376         3.37344         4.65117
   C        0.99735         4.71344         2.20727
   C        1.65344         5.61126         1.35346
   C        3.00025         5.83501         1.85141
   C        3.96286         6.62497         1.29361
   C        3.73900         7.36481         0.11339
   N        3.56923         7.97789        -0.84074
   C        5.24782         6.75784         1.85938
   N        6.29401         6.87121         2.31587
   C        0.85815         6.00590         0.27484
   C       -0.39088         5.43016         0.32179
   S       -0.59192         4.38115         1.70917
   C       -1.43483         5.57065        -0.66946
   C       -1.14484         5.45278        -2.03483
   C        0.12975         5.10622        -2.70994
   O        1.19578         4.81810        -2.22716
   N       -0.15538         5.12197        -4.07950
   C       -1.50673         5.38258        -4.34037
   O       -1.99965         5.42002        -5.43792
   C       -2.13391         5.57881        -3.01854
   C       -3.45913         5.81661        -2.70928
   C       -3.75993         5.94074        -1.35871
   C       -2.78609         5.83134        -0.35882
   C       -3.29604         6.10016         0.99209
   O       -2.68986         6.16602         2.02359
   S       -5.07050         6.38863         0.91028
   C       -5.12195         6.21935        -0.87561
   O       -6.12055         6.32580        -1.52314
   C        0.73089         4.90864        -5.12965
   C        2.05760         4.77113        -5.01814
   C        2.93599         4.58075        -6.13602
   C        2.62752         4.37362        -7.45159
   C        3.75974         4.24917        -8.30039
   C        4.95923         4.37824        -7.55334
   S        4.65953         4.62350        -5.86052
   C        6.25141         4.34040        -8.06819
   O        7.21843         4.50329        -7.13049
   C        8.57384         4.62185        -7.48390
   C        6.37608         4.15223        -9.45731
   C        5.17677         4.01956       -10.20234
   C        3.88509         4.05325        -9.68958
   O        2.92066         3.89806       -10.63245
   C        1.55912         3.81088       -10.29370
   S        5.47559         3.80957       -11.90007
   C        7.20179         3.90606       -11.62908
   C        7.50946         4.06668       -10.30895
   C        8.08989         3.78325       -12.74378
   S        7.54153         2.90885       -14.13452
   C        9.04938         3.16016       -14.97059
   C        9.93438         3.87400       -14.17401
   C        9.37820         4.25384       -12.93189
   C       10.08824         5.17277       -11.96986
   N        9.14848         6.11364       -11.37548
   C       11.25241         5.86727       -12.69160
   C       12.11404         4.82897       -13.38708
   C       11.35454         4.19677       -14.56399
   N       12.01526         2.99983       -15.06993
   C        9.08652         2.66855       -16.30565
   C       10.04902         2.83112       -17.24056
   C        9.94724         2.34434       -18.56971
   C       10.87373         2.52873       -19.58120
   C       10.47462         1.93716       -20.78065
   C        9.23631         1.28990       -20.68241
   S        8.55793         1.41435       -19.12080
   C        8.92355         0.72134       -21.95013
   C        9.96198         1.01566       -22.84190
   C       10.97008         1.79082       -22.14471
   C       12.13333         2.29193       -22.65363
   C       12.51144         2.09922       -23.99841
   N       12.82477         1.94806       -25.09136
   C       13.03416         3.04297       -21.87107
   N       13.77056         3.65596       -21.24014
   C        9.73276         0.48774       -24.12763
   C        8.55024        -0.18356       -24.18451
   S        7.68243        -0.19287       -22.68235
   H        4.04904         3.45846         5.83245
   H        5.05252         5.13309         4.09102
   H        1.16148         6.69577        -0.49049
   H       -4.22259         5.90407        -3.46536
   H        0.21639         4.89289        -6.08090
   H        2.52854         4.81911        -4.04834
   H        1.60929         4.31578        -7.78142
   H        9.08842         4.87232        -6.55632
   H        8.72940         5.42024        -8.21444
   H        8.96983         3.67666        -7.86746
   H        1.18373         4.75700        -9.89321
   H        1.37170         2.99854        -9.58607
   H        1.04673         3.59427       -11.23073
   H        8.52640         4.10457        -9.98164
   H       10.50586         4.57641       -11.14370
   H        8.65036         6.61609       -12.10239
   H        9.65265         6.79514       -10.81792
   H       11.84198         6.43262       -11.96572
   H       10.85446         6.56969       -13.42942
   H       12.38312         4.04623       -12.67101
   H       13.03800         5.27903       -13.75712
   H       11.32993         4.92172       -15.39179
   H       11.98698         2.26247       -14.37439
   H       12.98828         3.20047       -15.27458
   H        8.18670         2.13579       -16.59557
   H       10.96911         3.33674       -17.00192
   H       11.78951         3.07196       -19.43533
   H       10.39946         0.59487       -24.96369
   H        8.11825        -0.68583       -25.02664
*
