# ORCA input file
# SCF done       -234.818874079196          0.000254125855
! CAM-B3LYP def2-SVP def2/J RIJCOSX Grid4 TightSCF
%maxcore 5000
%tddft
    Mode sTDDFT
    Ethresh 5.0
    maxcore 5000
end

%pal
  nprocs 6
  end
* xyz 0 1
   C       -3.22588         2.31656         5.52549
   C       -3.20128         2.49834         6.87961
   F       -3.10104         3.73293         7.39231
   C       -3.28020         1.39539         7.75284
   F       -3.25248         1.60300         9.07744
   C       -3.38337         0.12518         7.25945
   C       -3.41011        -0.09509         5.86871
   C       -3.33076         1.01920         4.98431
   C       -3.35471         0.82218         3.58457
   C       -3.45939        -0.44960         3.08487
   C       -3.53704        -1.55533         3.97560
   C       -3.50912        -1.39747         5.33053
   C       -3.61924        -2.81041         3.19927
   O       -3.54500        -3.93227         3.64975
   C       -3.65124        -2.39311         1.77405
   C       -3.51249        -0.95220         1.71409
   C       -3.49799        -0.17690         0.58321
   C       -3.58899        -0.65633        -0.74061
   N       -3.66370        -0.95034        -1.84832
   C       -3.39210         1.22946         0.59142
   N       -3.30345         2.37279         0.53273
   C       -3.65817        -3.25160         0.71426
   C       -4.01242        -4.62851         0.76652
   C       -3.42141        -5.54460        -0.13533
   C       -3.69339        -6.94698        -0.07920
   N       -2.97296        -7.79065        -0.85027
   C       -2.12838        -7.31059        -1.71624
   C       -1.95585        -5.89608        -1.86450
   N       -2.55571        -5.06825        -1.05584
   C       -1.06854        -5.31787        -2.91233
   C       -1.34579        -8.28266        -2.53409
   C       -4.65208        -7.47736         0.80961
   C       -5.32956        -6.55658         1.62699
   C       -5.00942        -5.14790         1.61544
   N       -5.82465        -4.44898         2.40671
   S       -6.85179        -5.45860         3.10892
   N       -6.35921        -6.82080         2.43765
   C       -4.93407        -8.89138         0.86747
   C       -5.05975        -9.67350        -0.29691
   C       -5.31629       -11.08281        -0.23622
   N       -5.24433       -11.80641        -1.37392
   C       -5.08944       -11.21340        -2.51826
   C       -5.07128        -9.77951        -2.59172
   N       -5.01921        -9.07138        -1.50496
   C       -5.09069        -9.06053        -3.89811
   C       -4.95202       -12.06319        -3.73586
   C       -5.55761       -11.73963         0.98643
   C       -5.46393       -10.95733         2.14926
   C       -5.13261        -9.55090         2.09186
   N       -5.04067        -9.01521         3.31278
   S       -5.40109       -10.13656         4.39514
   N       -5.66228       -11.36563         3.40675
   C       -5.85030       -13.15107         1.04643
   C       -5.26158       -13.99109         2.01562
   C       -5.63359       -15.36498         2.13677
   N       -5.09464       -16.11382         3.12203
   C       -4.23780       -15.58070         3.94651
   C       -3.80607       -14.22568         3.77207
   N       -4.30362       -13.48894         2.82263
   C       -2.74668       -13.62642         4.63341
   C       -3.68904       -16.44441         5.02885
   C       -6.59884       -15.96778         1.29253
   C       -7.10865       -15.15270         0.26095
   C       -6.74331       -13.75828         0.14986
   N       -7.38602       -13.15928        -0.85770
   S       -8.29229       -14.23287        -1.61336
   N       -7.95597       -15.51825        -0.70418
   C       -6.93647       -17.33133         1.50429
   C       -8.01904       -18.05339         1.10103
   C       -7.92056       -19.53829         1.07093
   O       -7.05512       -20.22269         1.56626
   C       -9.07511       -19.98767         0.26332
   C       -9.38633       -21.24589        -0.16304
   C      -10.53994       -21.43637        -0.95702
   C      -11.34711       -20.31238        -1.29733
   C      -12.49242       -20.50901        -2.09481
   C      -12.82228       -21.76142        -2.53083
   C      -12.02419       -22.87193        -2.19244
   C      -10.90652       -22.71425        -1.42192
   F      -12.37092       -24.08943        -2.63523
   F      -13.91296       -21.94537        -3.28853
   C      -11.00294       -19.02141        -0.83421
   C       -9.88553       -18.86225        -0.05958
   C       -9.31115       -17.68033         0.57802
   C       -9.98246       -16.51060         0.82417
   C       -9.50166       -15.49894         1.67833
   N       -9.16789       -14.65969         2.38723
   C      -11.25671       -16.21005         0.30576
   N      -12.27929       -15.90031        -0.11539
   H       -3.16508         3.17205         4.87103
   H       -3.44230        -0.70897         7.94098
   H       -3.28595         1.68584         2.94330
   H       -3.56479        -2.25555         5.98300
   H       -3.33718        -2.90643        -0.26018
   H       -0.04260        -5.65428        -2.76898
   H       -1.10378        -4.23382        -2.85567
   H       -1.39174        -5.63896        -3.90130
   H       -1.63107        -9.29369        -2.25771
   H       -0.27824        -8.15020        -2.36444
   H       -1.53894        -8.12721        -3.59443
   H       -4.23439        -9.35060        -4.50507
   H       -5.06126        -7.98959        -3.71924
   H       -5.99463        -9.30825        -4.45255
   H       -4.96442       -13.11009        -3.44723
   H       -4.01999       -11.84129        -4.25347
   H       -5.77367       -11.87044        -4.42399
   H       -1.83365       -14.21798         4.58744
   H       -3.07850       -13.59873         5.67014
   H       -2.53939       -12.61537         4.29554
   H       -4.14752       -17.42738         4.97367
   H       -3.89427       -16.00223         6.00243
   H       -2.60932       -16.54399         4.92665
   H       -6.17570       -17.89896         2.03228
   H       -8.76166       -22.08576         0.10074
   H      -13.11660       -19.67010        -2.36030
   H      -10.30567       -23.57447        -1.17138
   H      -11.62764       -18.18731        -1.11124
*
