# ORCA input file
# SCF done       -207.043953279541          0.000654487739
! CAM-B3LYP def2-SVP def2/J RIJCOSX Grid4 TightSCF
%maxcore 5000
%tddft
    Mode sTDDFT
    Ethresh 5.0
    maxcore 5000
end

%pal
  nprocs 6
  end
* xyz 0 1
   C       -1.79607        -3.81926         3.33490
   C       -3.11656        -3.49209         3.63419
   C       -3.68587        -3.74813         5.00101
   O       -4.82955        -4.06100         5.16564
   O       -2.83981        -3.61808         6.02939
   C       -3.96425        -2.97325         2.64141
   C       -5.30204        -2.60144         2.93191
   N       -6.37796        -2.23889         3.07927
   C       -3.49870        -2.78316         1.33591
   C       -2.19122        -3.11443         1.05471
   C       -1.33004        -3.61781         2.04681
   C       -0.00334        -3.81415         1.46289
   C        1.16693        -3.79402         2.17878
   C        1.19785        -3.75429         3.58630
   N        1.23388        -3.71988         4.73325
   C        2.44135        -3.68425         1.58585
   N        3.48997        -3.55671         1.13723
   C       -0.14349        -3.67986         0.03244
   C       -1.46512        -3.05443        -0.23907
   O       -1.86939        -2.63447        -1.29556
   C        0.65032        -4.06220        -1.01026
   C        1.69575        -5.00469        -1.03833
   C        2.63504        -5.14269        -2.05428
   C        3.51781        -6.18663        -1.82044
   C        3.22728        -6.89223        -0.63077
   S        1.88851        -6.25125         0.19827
   C        4.16656        -7.93516        -0.48233
   C        5.06531        -7.88851        -1.56568
   C        4.68185        -6.79448        -2.44520
   C        5.28299        -6.42446        -3.61114
   C        6.41207        -7.09871        -4.12583
   N        7.32482        -7.64262        -4.55515
   C        4.80552        -5.34784        -4.38973
   N        4.41136        -4.47717        -5.02236
   C        6.04819        -8.87076        -1.49824
   C        5.90880        -9.67566        -0.37971
   S        4.53127        -9.19856         0.60583
   C        6.72220       -10.78271         0.01624
   C        6.38868       -11.58309         1.10172
   C        7.15177       -12.67261         1.48997
   C        8.31997       -13.06072         0.84016
   C        8.72632       -12.24754        -0.26789
   C        7.92177       -11.11785        -0.67676
   N        8.42012       -10.44702        -1.70143
  Se        9.91074       -11.16409        -2.24092
   N        9.82291       -12.40374        -1.00323
   C        9.05901       -14.21974         1.27240
   C       10.18751       -14.65787         0.62094
   C       10.94363       -15.76990         0.96186
   C       10.50276       -16.72202         1.97444
   C        9.43924       -16.48424         2.77920
   S        8.46330       -15.07768         2.68700
   C       11.38424       -17.83559         1.85399
   C       12.30358       -17.60485         0.82561
   C       13.20806       -18.67522         0.66582
   C       12.95450       -19.67447         1.55218
   S       11.62439       -19.35693         2.61228
   C       12.07848       -16.29132         0.28449
   C       12.76807       -15.63269        -0.74232
   C       12.78240       -14.25116        -0.81069
   C       12.91515       -13.42439        -1.91955
   C       13.16519       -13.66747        -3.26199
   C       12.46635       -12.82881        -4.23769
   O       11.72327       -11.88676        -4.00108
   C       12.76369       -13.41669        -5.56276
   C       13.62998       -14.51300        -5.39036
   C       14.07265       -15.22133        -6.49300
   C       13.63953       -14.84266        -7.76478
   C       12.77469       -13.74790        -7.92250
   C       12.32942       -13.02574        -6.80897
   C       12.29508       -13.34567        -9.19578
   N       11.80884       -12.94896       -10.15393
   C       14.11594       -15.53709        -9.00703
   O       14.12853       -14.99004       -10.07275
   O       14.52651       -16.80400        -8.87395
   C       13.93729       -14.64791        -3.96167
   C       14.92951       -15.44343        -3.43341
   C       15.39204       -15.31857        -2.10911
   N       15.81562       -15.22779        -1.04584
   C       15.61767       -16.42543        -4.16811
   N       16.15806       -17.26954        -4.73001
   H       -1.16125        -4.26836         4.08439
   H       -1.94903        -3.33210         5.78251
   H       -4.14778        -2.38849         0.56914
   H        0.38327        -3.63520        -1.97260
   H        2.66980        -4.47761        -2.89835
   H        6.84100        -9.01756        -2.20808
   H        5.49232       -11.35609         1.66046
   H        6.81228       -13.25010         2.33701
   H       10.47259       -14.09134        -0.25256
   H        9.12628       -17.16854         3.55197
   H       14.00259       -18.70568        -0.05695
   H       13.47765       -20.60448         1.65892
   H       13.23831       -16.24463        -1.49919
   H       12.51745       -13.73575         0.10248
   H       12.56199       -12.40782        -1.75101
   H       14.77002       -16.03688        -6.37054
   H       11.67006       -12.17939        -6.92699
   H       14.47062       -17.14890        -7.97250
*
