# ORCA input file
# SCF done       -255.239941525960          0.000490523812
! CAM-B3LYP def2-SVP def2/J RIJCOSX Grid4 TightSCF
%maxcore 5000
%tddft
    Mode sTDDFT
    Ethresh 5.0
    maxcore 5000
end

%pal
  nprocs 6
  end
* xyz 0 1
   C       -1.02934        -5.95235        -1.37582
   C       -1.85281        -5.91179        -0.24618
   C       -3.29725        -5.60649        -0.37106
   O       -3.99287        -5.21683         0.53118
   O       -3.76247        -5.81132        -1.60904
   C       -1.32326        -6.12158         1.03238
   C       -2.11583        -6.06417         2.20098
   N       -2.63980        -6.08171         3.22106
   C        0.02651        -6.46595         1.18849
   C        0.80196        -6.58812         0.06199
   C        0.30312        -6.26418        -1.21263
   C        1.44444        -6.26991        -2.14072
   C        1.39117        -5.73502        -3.42012
   C        0.20368        -5.38076        -4.07621
   N       -0.72557        -5.08343        -4.68624
   C        2.51198        -5.40392        -4.19216
   N        3.39838        -5.07047        -4.84806
   C        2.55242        -6.77508        -1.43254
   C        2.22052        -7.02690        -0.07391
   O        2.88310        -7.54496         0.83212
   C        3.90484        -6.96212        -2.05952
   C        4.91804        -7.87514        -1.44916
   C        5.33998        -8.76977        -2.46638
   C        4.60429        -8.43597        -3.62664
   O        3.77578        -7.45377        -3.40092
   C        4.70372        -8.92430        -4.97154
   C        5.80469        -9.54687        -5.50869
   S        5.60787        -9.91382        -7.16104
   C        4.03247        -9.22563        -7.16890
   C        3.67198        -8.72889        -5.95481
   C        2.30682        -8.20858        -5.67280
   O        1.71112        -8.54975        -4.66514
   C        1.71388        -7.32939        -6.68726
   C        0.32223        -7.27082        -6.79046
   C       -0.26848        -6.42139        -7.70448
   C        0.51931        -5.60913        -8.50429
   C        1.90180        -5.65356        -8.39787
   C        2.50288        -6.51243        -7.49969
   C        6.31798        -9.73472        -2.19431
   C        6.90029        -9.73372        -0.95605
   C        6.51452        -8.82197         0.04858
   C        5.50142        -7.88611        -0.20873
   C        7.16877        -8.85192         1.33709
   C        6.50202        -8.61769         2.51018
   C        7.07815        -8.67961         3.78189
   C        8.50972        -8.98869         3.94501
   C        9.35693        -9.23385         2.92281
   S        8.88371        -9.23574         1.27682
   C        8.72988        -9.04649         5.34711
   C        7.51819        -8.84852         6.01458
   C        7.66084        -8.94727         7.41724
   C        8.94590        -9.20436         7.77028
   S       10.03284        -9.34099         6.42574
   C        6.48589        -8.59630         5.05242
   C        5.11568        -8.41517         5.41317
   C        4.16420        -7.78928         4.70027
   C        2.75786        -7.87043         5.05210
   C        2.26445        -7.87681         6.36803
   C        3.07013        -7.46660         7.54582
   O        2.92882        -7.98498         8.63466
   C        4.05075        -6.37731         7.33396
   C        5.20402        -6.31551         8.06273
   S        6.24584        -5.05688         7.55533
   C        5.11656        -4.57154         6.35673
   C        3.98938        -5.33598         6.35246
   C        2.84394        -5.02363         5.46007
   O        3.01448        -4.72622         4.29525
   C        1.50459        -5.06209         6.08827
   C        0.39074        -5.20100         5.26071
   C       -0.87923        -5.27456         5.79689
   C       -1.04942        -5.18663         7.16974
   C        0.04719        -5.00636         7.99861
   C        1.32065        -4.94433         7.46589
   C        0.93986        -8.24776         6.60112
   C        0.10307        -8.58712         5.56360
   C        0.57182        -8.55328         4.24268
   C        1.88226        -8.14147         4.00488
   C       -0.31154        -8.92410         3.16652
   C       -0.02438        -9.39972         1.92954
   C       -1.09142        -9.31906         0.89077
   O       -2.26465        -9.09317         1.06506
   C       -0.39916        -9.53565        -0.39730
   C        0.95086        -9.85280        -0.15763
   C        1.77216       -10.18094        -1.22473
   C        1.23052       -10.22287        -2.50578
   C       -0.10356        -9.85148        -2.74031
   C       -0.92628        -9.49253        -1.67058
   C       -0.65460        -9.81745        -4.04333
   N       -1.17272        -9.75752        -5.06361
   C        2.09846       -10.73826        -3.59703
   O        3.30619       -10.74930        -3.55575
   O        1.40701       -11.32916        -4.57250
   C        1.19450        -9.86476         1.28348
   C        2.29428       -10.41923         1.87784
   C        2.38663       -10.73601         3.25047
   N        2.50676       -11.10247         4.33109
   C        3.47894       -10.76635         1.19706
   N        4.49599       -11.02023         0.72819
   H       -1.45485        -5.73630        -2.34204
   H       -4.70699        -5.59478        -1.64959
   H        0.44440        -6.61507         2.17155
   H        4.35396        -5.95759        -2.17774
   H        6.73470        -9.76503        -5.02473
   H        3.44562        -9.24410        -8.06625
   H       -0.27753        -7.91078        -6.16035
   H       -1.34361        -6.38213        -7.77970
   H        0.05686        -4.93174        -9.20675
   H        2.51198        -5.00763        -9.01116
   H        3.57665        -6.51659        -7.39079
   H        6.58459       -10.47112        -2.93310
   H        7.65265       -10.47080        -0.72011
   H        5.19598        -7.18348         0.54815
   H        5.43826        -8.45145         2.42957
   H       10.39855        -9.46849         3.07626
   H        6.85798        -8.85074         8.12450
   H        9.34419        -9.32973         8.75807
   H        4.83858        -8.86348         6.36060
   H        4.38730        -7.30338         3.76239
   H        5.49174        -6.96900         8.86223
   H        5.32182        -3.72216         5.73565
   H        0.54606        -5.25702         4.19373
   H       -1.73024        -5.40077         5.14472
   H       -2.04055        -5.24608         7.59361
   H       -0.08977        -4.91431         9.06580
   H        2.16551        -4.78348         8.11908
   H        0.58462        -8.25417         7.62061
   H       -0.91156        -8.89674         5.75958
   H        2.24780        -8.03957         2.99218
   H       -1.36786        -8.73700         3.34237
   H        2.81292       -10.43529        -1.09651
   H       -1.95710        -9.21412        -1.83100
   H        2.00066       -11.68250        -5.25285
*
