# ORCA input file
# SCF done       -192.749166946621          0.000674905451
! CAM-B3LYP def2-SVP def2/J RIJCOSX Grid4 TightSCF
%maxcore 5000
%tddft
    Mode sTDDFT
    Ethresh 5.0
    maxcore 5000
end

%pal
  nprocs 6
  end
* xyz 0 1
   C       13.58618        -5.15168         6.22303
   C       13.50824        -5.50120         7.54254
   F       14.62595        -5.50777         8.29246
   C       12.29966        -5.85625         8.15609
   C       11.15389        -5.85258         7.40989
   C       11.17639        -5.49891         6.04551
   C       12.41645        -5.14449         5.43902
   C       12.46625        -4.79863         4.06764
   C       11.31216        -4.80152         3.33365
   C       10.07248        -5.13858         3.95013
   C        9.99667        -5.48597         5.26727
   C        8.98933        -5.02670         2.95412
   O        7.81208        -5.26927         3.10239
   C        9.63781        -4.48645         1.73101
   C       11.06445        -4.54571         1.91578
   C       12.01111        -4.62835         0.92304
   C       11.67924        -4.74240        -0.44056
   N       11.43854        -4.88797        -1.55419
   C       13.39604        -4.69959         1.15987
   N       14.53672        -4.71546         1.29523
   C        8.83554        -3.95824         0.75379
   C        9.10049        -3.02806        -0.25782
   S       10.54269        -2.06115        -0.34479
   C        9.98704        -1.15892        -1.70651
   C        8.70009        -1.58467        -2.09025
   C        8.19702        -2.63552        -1.27031
   C        6.93048        -3.18344        -1.53282
   C        6.19805        -2.68349        -2.57376
   F        4.98473        -3.18548        -2.83767
   C        6.69583        -1.64095        -3.38559
   F        5.94033        -1.18426        -4.39524
   C        7.92721        -1.09479        -3.15795
   C       10.76877        -0.15059        -2.31241
   C       12.06029         0.12513        -2.00325
   C       12.79787         1.15698        -2.65384
   C       14.09570         1.45197        -2.44913
   C       14.99401         0.69755        -1.52099
   C       14.73461         2.59792        -3.19199
   N       15.74224         2.11939        -4.10604
   C       17.02453         2.50677        -4.12373
   C       17.96050         2.01772        -4.98831
   C       19.28368         2.47482        -5.02785
   C       20.23489         2.02099        -5.91035
   C       21.57524         2.45017        -6.02824
   C       22.28078         1.81854        -7.01078
   C       21.53339         0.85265        -7.71700
   S       19.90637         0.77015        -7.10501
   C       21.95542         0.03612        -8.75784
   C       23.22080        -0.01544        -9.36852
   C       23.30995        -0.94696       -10.36670
   C       22.12169        -1.67211       -10.58583
   S       20.87486        -1.13060        -9.48881
   C       21.92210        -2.68223       -11.51467
   C       20.71601        -3.35104       -11.64937
   C       20.46708        -4.37965       -12.54349
   C       19.23153        -5.09469       -12.70073
   C       18.04961        -4.88631       -12.02255
   C       16.87396        -5.62980       -12.23731
   N       15.88176        -6.19745       -12.35919
   C       17.82605        -3.91195       -11.03152
   N       17.54573        -3.14882       -10.21798
   C       19.43293        -6.11037       -13.73477
   C       20.76269        -6.01292       -14.20966
   C       21.45745        -4.92473       -13.48520
   O       22.61175        -4.57712       -13.65465
   C       21.26286        -6.83450       -15.18813
   C       20.40843        -7.80400       -15.72648
   C       19.08307        -7.89459       -15.24568
   C       18.57663        -7.06097       -14.25453
   S       18.19822        -9.16066       -16.04448
   C       19.60507        -9.54379       -17.00043
   C       20.68144        -8.76674       -16.73749
  Br       19.51959       -10.93554       -18.25674
   H       14.53549        -4.88875         5.78310
   H       12.29939        -6.12432         9.20068
   H       10.21032        -6.12243         7.85982
   H       13.41730        -4.53229         3.63393
   H        9.04867        -5.74991         5.71146
   H        7.79093        -4.23792         0.85647
   H        6.52779        -3.98694        -0.93858
   H        8.28440        -0.30586        -3.79872
   H       10.28611         0.41843        -3.09556
   H       12.55283        -0.45753        -1.23795
   H       12.23945         1.75216        -3.36623
   H       14.84410        -0.37597        -1.60829
   H       14.79111         0.97885        -0.48701
   H       16.03743         0.91869        -1.73314
   H       15.21272         3.28076        -2.48343
   H       13.97148         3.15627        -3.74801
   H       15.45680         1.40050        -4.75570
   H       17.29266         3.27172        -3.40631
   H       17.67332         1.25136        -5.69554
   H       19.58314         3.24507        -4.32871
   H       21.97898         3.21371        -5.38662
   H       23.31116         2.01998        -7.24135
   H       24.03006         0.62500        -9.06632
   H       24.19519        -1.13409       -10.94791
   H       22.75135        -2.95545       -12.15065
   H       19.91091        -3.04168       -10.99383
   H       22.28158        -6.73498       -15.52889
   H       17.55808        -7.17247       -13.92282
   H       21.62962        -8.86600       -17.23376
*
