# ORCA input file
# SCF done       -162.934158342257          0.000759380560
! CAM-B3LYP def2-SVP def2/J RIJCOSX Grid4 TightSCF
%maxcore 5000
%tddft
    Mode sTDDFT
    Ethresh 5.0
    maxcore 5000
end

%pal
  nprocs 6
  end
* xyz 0 1
   C       -4.68212         0.71816        -2.54101
   C       -4.66191         1.56265        -3.62957
   C       -3.97985         1.27165        -4.82457
   N       -3.47738         1.02787        -5.82814
   C       -5.28745         2.81697        -3.61124
   N       -5.69862         3.89154        -3.56438
   C       -3.77019        -0.38411        -2.28928
   C       -3.91189        -0.77002        -0.93383
   C       -3.14077        -1.75128        -0.36230
   C       -2.19622        -2.39210        -1.17168
   C       -2.07496        -2.01001        -2.52830
   C       -2.84171        -1.00418        -3.10275
   S       -0.85220        -2.93564        -3.34519
   C       -0.51548        -3.80094        -1.86908
   C       -1.28277        -3.42341        -0.81971
  Br        0.81955        -5.11807        -1.85027
   C       -4.96927         0.04094        -0.29342
   O       -5.29637        -0.01743         0.87829
   C       -5.50948         0.88932        -1.36520
   C       -6.70343         1.56016        -1.45088
   N       -7.61359         1.87195        -0.53686
   C       -7.52127         1.84842         0.90916
   C       -8.23718         0.61382         1.45559
   C       -8.35426         0.69385         2.97517
   N       -9.21686        -0.38174         3.44489
   S       -9.91661         0.17591         4.94419
   N      -10.23115         1.68422         4.22543
   C       -9.04736         2.01587         3.44402
   C       -9.40497         2.91834         2.27191
   C       -8.18110         3.18087         1.39635
   N       -8.59535         3.94721         0.22855
   S       -9.01347         2.78702        -0.95013
   C       -7.79474         5.01602        -0.19452
   C       -8.11521         5.83014        -1.19873
   C       -9.36802         5.69620        -2.00755
   C       -7.14902         6.89407        -1.66138
   N       -6.67107         6.56862        -2.98380
   C       -7.23869         7.03610        -4.10691
   C       -7.12165         6.39642        -5.30569
   C       -7.65590         6.84013        -6.52121
   C       -7.65316         6.06115        -7.65314
   C       -8.16960         6.34970        -8.93504
   C       -8.06047         5.32521        -9.83017
   C       -7.45421         4.16645        -9.29823
   S       -6.99904         4.42358        -7.63467
   C       -7.22003         2.94369        -9.89834
   C       -7.52154         2.50253       -11.19981
   C       -7.15801         1.21065       -11.44291
   C       -6.55481         0.55279       -10.34008
   S       -6.44917         1.65438        -8.98556
   C       -6.04833        -0.72289       -10.35033
   C       -5.48006        -1.44762        -9.28351
   S       -4.37076        -2.75221        -9.68570
   C       -4.10579        -3.15688        -8.03236
   C       -4.83073        -2.34588        -7.21837
   C       -5.61016        -1.37758        -7.90477
   S       -6.69287        -0.45011        -6.90188
   C       -6.24364        -1.18597        -5.39194
   S       -6.95810        -0.77762        -3.97573
   S       -4.98088        -2.39088        -5.47871
   H       -3.25760        -2.01572         0.67714
   H       -2.70816        -0.73775        -4.13808
   H       -1.20802        -3.85154         0.16335
   H       -7.01727         1.85726        -2.44622
   H       -6.46834         1.80525         1.19585
   H       -7.65897        -0.26995         1.18512
   H       -9.22907         0.51941         1.01125
   H       -7.34528         0.64617         3.40984
   H       -8.73008        -1.25897         3.57695
   H      -11.05143         1.61175         3.62829
   H       -8.36500         2.54498         4.12053
   H       -9.79098         3.86831         2.64375
   H      -10.18572         2.45520         1.66554
   H       -7.45520         3.76924         1.96526
   H       -6.88295         5.16868         0.37015
   H       -9.75669         6.68171        -2.25908
   H      -10.12773         5.14967        -1.45320
   H       -9.17551         5.16631        -2.94092
   H       -6.29563         6.95565        -0.97962
   H       -7.64195         7.87029        -1.69774
   H       -6.22358         5.65680        -3.07852
   H       -7.78274         7.96921        -4.02131
   H       -6.60774         5.44411        -5.31542
   H       -8.11667         7.81789        -6.57459
   H       -8.61116         7.30557        -9.15884
   H       -8.40302         5.36887       -10.84869
   H       -7.99907         3.14298       -11.92028
   H       -7.31037         0.70113       -12.37801
   H       -6.01908        -1.21986       -11.31123
   H       -3.44714        -3.95603        -7.76507
*
