# ORCA input file
# SCF done       -198.039123868495          0.000697501461
! CAM-B3LYP def2-SVP def2/J RIJCOSX Grid4 TightSCF
%maxcore 5000
%tddft
    Mode sTDDFT
    Ethresh 5.0
    maxcore 5000
end

%pal
  nprocs 6
  end
* xyz 0 1
   C       -6.08123        -1.04888        -2.56934
   C       -4.99025        -1.76689        -2.97458
   C       -5.05081        -3.09826        -3.43959
   N       -5.04852        -4.17769        -3.82857
   C       -3.68455        -1.24180        -3.06007
   N       -2.60876        -0.86181        -3.18661
   C       -7.46619        -1.49884        -2.58845
   C       -8.31736        -0.38822        -2.35344
   C       -9.68490        -0.49922        -2.29950
   C      -10.24132        -1.76955        -2.48271
   C       -9.38538        -2.87266        -2.72404
   C       -8.00259        -2.75974        -2.78096
   S      -10.28366        -4.34679        -2.92136
   C      -11.77447        -3.47518        -2.68030
   C      -11.61077        -2.14828        -2.46239
  Br      -13.40447        -4.39865        -2.74224
   C       -7.49505         0.82444        -2.17690
   O       -7.86034         1.97480        -2.20064
   C       -6.08609         0.33404        -2.10803
   C       -5.05712         1.08049        -1.66090
   C       -5.23151         2.42338        -1.12276
   C       -4.58946         3.47235        -1.78950
   C       -4.76345         4.79015        -1.42897
   C       -5.57686         5.11999        -0.34965
   C       -6.18507         4.10219         0.34700
   C       -6.01711         2.75831        -0.02025
   N       -6.64353         1.94514         0.90884
   C       -6.62945         0.51194         0.96683
   C       -7.26766         2.68358         1.88672
   O       -7.82842         2.22040         2.84734
   C       -7.09092         4.15657         1.53788
   C       -8.46784         4.76993         1.19562
   C       -9.06350         4.02759        -0.00639
   O       -9.39909         2.86739        -0.04696
   N       -9.14419         4.91450        -1.04059
   C       -9.58657         4.56231        -2.36099
   C       -8.71769         6.17841        -0.66382
   C       -8.63725         7.32473        -1.42387
   C       -8.16319         8.50238        -0.82533
   C       -7.81030         8.48329         0.52857
   C       -7.89671         7.32537         1.28551
   C       -8.34431         6.16851         0.68609
   C       -8.05814         9.68683        -1.65229
   C       -7.55202        10.87610        -1.27416
   C       -7.43118        12.04152        -2.09014
   S       -7.31424        13.57888        -1.28519
   C       -7.29862        14.40359        -2.78996
   C       -7.38124        13.57180        -3.86110
   C       -7.32447        14.07498        -5.26624
   C       -7.44908        12.19439        -3.47317
   C       -7.42018        11.07888        -4.38031
   C       -8.03575        11.04144        -5.58674
   C       -7.99267         9.97054        -6.51889
   C       -7.21725         8.84860        -6.45253
   C       -7.25924         7.84360        -7.43067
   C       -6.51175         6.69253        -7.42134
   C       -6.56785         5.64310        -8.37052
   C       -5.74530         4.59346        -8.09788
   C       -4.97731         4.75733        -6.92275
   S       -5.33586         6.29784        -6.17349
   C       -4.08514         3.86249        -6.36749
   C       -3.82880         2.53071        -6.76558
   C       -2.97516         1.86271        -5.94392
   C       -2.49336         2.63116        -4.85220
   S       -3.13845         4.26315        -4.94682
   C       -1.70975         2.15883        -3.83409
   C       -1.24841         2.86639        -2.71019
   S       -1.36315         4.60263        -2.50043
   C       -0.61812         4.53974        -0.94814
   C       -0.29478         3.26212        -0.60483
   C       -0.64259         2.31236        -1.59340
   S       -0.30211         0.64709        -1.23216
   C        0.40309         0.94333         0.34502
   S        0.96822        -0.25746         1.28760
   S        0.45624         2.63066         0.83884
   H      -10.30079         0.36344        -2.10020
   H       -7.39139        -3.62956        -2.95627
   H      -12.42085        -1.46300        -2.29211
   H       -4.03816         0.72023        -1.73929
   H       -3.98036         3.22503        -2.64236
   H       -4.26866         5.56446        -1.99405
   H       -5.71570         6.14985        -0.06043
   H       -5.62334         0.13093         0.78189
   H       -7.32345         0.08016         0.24104
   H       -6.95548         0.23154         1.96944
   H       -6.66221         4.70303         2.38196
   H       -9.11834         4.66515         2.06823
   H       -9.74197         3.48572        -2.37277
   H       -8.81907         4.81630        -3.09364
   H      -10.51670         5.07911        -2.60889
   H       -8.91914         7.32534        -2.46569
   H       -7.46256         9.38617         1.00373
   H       -7.61275         7.33336         2.32732
   H       -8.44272         9.57784        -2.65718
   H       -7.23551        11.02276        -0.25010
   H       -7.21916        15.47305        -2.79951
   H       -6.86018        15.05830        -5.29013
   H       -8.32640        14.16757        -5.68525
   H       -6.75089        13.39473        -5.89233
   H       -6.86432        10.21645        -4.03627
   H       -8.66732        11.87248        -5.86654
   H       -8.64404        10.07069        -7.37902
   H       -6.53361         8.70314        -5.62683
   H       -7.94301         7.97305        -8.26061
   H       -7.22300         5.69673        -9.22233
   H       -5.66279         3.71356        -8.71023
   H       -4.30190         2.09562        -7.62763
   H       -2.68128         0.83548        -6.06702
   H       -1.45504         1.10696        -3.85682
   H       -0.46201         5.43810        -0.38865
*
