# ORCA input file
# SCF done       -183.432068535495          0.000999863990
! CAM-B3LYP def2-SVP def2/J RIJCOSX Grid4 TightSCF
%maxcore 5000
%tddft
    Mode sTDDFT
    Ethresh 5.0
    maxcore 5000
end

%pal
  nprocs 6
  end
* xyz 0 1
   C       -5.37896        -1.45731         3.46593
   C       -6.03250        -2.63412         3.73994
   C       -5.48711        -3.67759         4.51242
   N       -5.09288        -4.55215         5.14395
   C       -7.31508        -2.95925         3.25429
   N       -8.34479        -3.29198         2.86926
   C       -4.01563        -1.12236         3.86253
   C       -3.67207         0.12499         3.28671
   C       -2.44764         0.71647         3.47616
   C       -1.51334         0.04182         4.26985
   C       -1.86576        -1.20256         4.84251
   C       -3.10681        -1.79970         4.65270
   S       -0.56687        -1.85918         5.79226
   C        0.41870        -0.47256         5.40973
   C       -0.19105         0.43649         4.61289
  Br        2.15945        -0.35443         6.09927
   C       -4.81583         0.64001         2.50627
   O       -4.87766         1.71655         1.94845
   C       -5.88485        -0.37187         2.66082
   C       -7.19521        -0.15028         2.31647
   C       -7.64226         0.83038         1.40909
   S       -9.10887         1.70861         1.78738
   C       -8.90877         2.74133         0.39750
   C       -7.80780         2.32411        -0.36464
   C       -7.11359         1.25296         0.19130
   C       -5.97763         0.64998        -0.56120
   C       -5.18083         1.80492        -1.16537
   C       -6.03618         2.53354        -2.19575
   C       -7.43062         2.93488        -1.68635
   C       -8.52104         2.46705        -2.63715
   O       -8.36914         1.71514        -3.55467
   C       -9.71527         3.86291         0.17273
   C      -10.84587         4.18700         0.88626
   C      -11.58536         5.36340         0.77078
   C      -11.26982         6.52815         0.08491
   C      -12.05489         7.69752         0.06746
   C      -11.49121         8.75602        -0.59887
   C      -10.23322         8.47064        -1.14389
   S       -9.79244         6.81690        -0.80977
   C       -9.35818         9.31224        -1.83292
   C       -9.50342        10.66968        -2.13744
   C       -8.40989        11.21099        -2.77383
   C       -7.37213        10.30131        -3.00284
   S       -7.81446         8.72332        -2.39509
   C       -6.13205        10.55120        -3.59412
   C       -5.18284         9.58497        -3.81807
   C       -3.91448         9.79989        -4.35615
   C       -2.95530         8.81750        -4.63395
   C       -1.77962         9.30929        -5.14402
   C       -1.76459        10.70502        -5.27688
   S       -3.28909        11.38169        -4.75755
   C       -0.71893        11.50680        -5.72754
   C        0.53957        11.08421        -6.19429
   C        1.36740        12.11084        -6.55097
   C        0.80080        13.39286        -6.37490
   S       -0.82941        13.24934        -5.75327
   C        1.40356        14.60388        -6.62761
   C        0.78991        15.84293        -6.40455
   O       -0.48346        15.90621        -5.91696
   C        1.24658        17.14305        -6.58158
   C        2.38065        17.95058        -7.01192
   O        3.47003        17.64494        -7.42715
   N        1.93146        19.26453        -6.83775
   C        0.63805        19.39319        -6.34415
   O        0.07598        20.43533        -6.12668
   C        0.19465        18.00322        -6.17839
   C       -0.85410        17.20689        -5.77520
   C       -2.15319        17.54616        -5.27384
   C       -3.06394        16.64067        -4.91690
   H       -2.21590         1.66889         3.02565
   H       -3.33131        -2.74601         5.11587
   H        0.26999         1.34884         4.28098
   H       -7.96815        -0.69816         2.84274
   H       -6.38106         0.02532        -1.36518
   H       -5.35718         0.02252         0.07389
   H       -4.27847         1.42791        -1.64842
   H       -4.88344         2.47792        -0.35984
   H       -6.17733         1.87454        -3.05698
   H       -5.51171         3.42468        -2.54302
   H       -7.51824         4.02365        -1.60250
   H       -9.52200         2.85555        -2.37010
   H       -9.39804         4.51307        -0.62863
   H      -11.20423         3.45927         1.60392
   H      -12.51189         5.40917         1.32910
   H      -13.01225         7.73675         0.55654
   H      -11.95230         9.72248        -0.69401
   H      -10.38776        11.22460        -1.88109
   H       -8.33719        12.24075        -3.07618
   H       -5.92177        11.57296        -3.88287
   H       -5.42220         8.56067        -3.55868
   H       -3.14729         7.77424        -4.45582
   H       -0.93749         8.69768        -5.41176
   H        0.80704        10.04505        -6.25994
   H        2.36611        11.98808        -6.92972
   H        2.41147        14.62609        -7.01153
   H        2.50927        20.06366        -7.05551
   H       -2.34019        18.60808        -5.20481
   H       -2.86101        15.58512        -4.99068
   H       -4.02884        16.93306        -4.54294
*
