# ORCA input file
# SCF done       -177.088351923372          0.000526339266
! CAM-B3LYP def2-SVP def2/J RIJCOSX Grid4 TightSCF
%maxcore 5000
%tddft
    Mode sTDDFT
    Ethresh 5.0
    maxcore 5000
end

%pal
  nprocs 6
  end
* xyz 0 1
   C      -11.53666        -0.47988        -0.82898
   C      -11.96000        -1.34640        -1.80542
   C      -13.28658        -1.80394        -1.93344
   N      -14.35212        -2.20372        -2.08718
   C      -11.11825        -1.93342        -2.77296
   N      -10.48880        -2.47562        -3.56609
   C      -12.34967         0.03773         0.26437
   C      -11.50967         0.75558         1.15022
   C      -11.98797         1.37319         2.27963
   C      -13.36040         1.28395         2.54242
   C      -14.18845         0.56490         1.64972
   C      -13.70459        -0.06636         0.51040
   S      -15.85219         0.59712         2.14894
   C      -15.41972         1.56861         3.52882
   C      -14.09867         1.85097         3.61787
  Br      -16.76539         2.13175         4.71041
   C      -10.12156         0.74110         0.63437
   O       -9.16422         1.30174         1.13002
   C      -10.18539        -0.00156        -0.64091
   C       -9.21371        -0.01125        -1.61338
   C       -7.84984         0.29793        -1.49340
   S       -7.05202         0.93013        -2.91123
   C       -5.58633         1.08411        -2.04309
   C       -5.65203         0.64550        -0.75574
   C       -4.45041         0.67471         0.12865
   C       -6.95403         0.15854        -0.41517
   C       -7.35006        -0.54092         0.75794
   C       -6.68879        -0.65274         1.94275
   C       -7.19457        -1.40318         3.02314
   C       -6.48608        -1.64127         4.16714
   C       -6.96749        -2.35417         5.27503
   S       -8.63639        -2.80615         5.42818
   C       -8.39383        -3.61059         6.95507
   C       -7.03976        -3.50142         7.35123
   C       -6.24163        -2.79461         6.40291
   C       -4.87143        -2.60022         6.64344
   C       -4.32679        -3.07168         7.80562
   F       -3.01823        -2.89381         8.05012
   C       -5.12416        -3.72399         8.76581
   F       -4.56130        -4.13687         9.91400
   C       -6.45981        -3.93467         8.55400
   C       -9.50511        -4.18649         7.57524
   C       -9.51176        -5.15841         8.55183
   C      -10.64102        -5.60031         9.24253
   C      -11.87037        -4.97602         9.35735
   C      -12.97566        -5.47781        10.07977
   C      -14.05003        -4.63619        10.13209
   C      -13.84508        -3.41504         9.46140
   S      -12.25711        -3.38554         8.73149
   C      -14.70359        -2.33295         9.35827
   C      -16.02302        -2.21464         9.84339
   C      -16.58966        -0.99864         9.60644
   C      -15.74474        -0.08483         8.92793
   S      -14.20440        -0.84713         8.57827
   C      -16.05440         1.20944         8.60068
   C      -15.22792         2.14643         7.96225
   S      -13.57666         1.86022         7.43731
   C      -13.37791         3.44250         6.78865
   C      -14.52413         4.18501         6.95744
   C      -15.55207         3.45063         7.62077
   O      -16.66328         4.19632         7.76376
   C      -16.36475         5.39417         7.19416
   N      -17.36788         6.39397         7.19705
   O      -17.07737         7.45036         6.66785
   O      -18.42767         6.13586         7.72307
   C      -15.09353         5.46036         6.68977
   H      -11.32627         1.91375         2.93803
   H      -14.37568        -0.59499        -0.14570
   H      -13.66318         2.44024         4.40430
   H       -9.53942        -0.21474        -2.62785
   H       -4.72812         1.49604        -2.53880
   H       -3.58967         1.02999        -0.43342
   H       -4.22901        -0.32156         0.50811
   H       -4.61100         1.34755         0.96965
   H       -8.28738        -1.07656         0.67087
   H       -5.75516        -0.14202         2.10918
   H       -8.18873        -1.82237         2.93072
   H       -5.46930        -1.27762         4.23221
   H       -4.24419        -2.08421         5.93564
   H       -7.04435        -4.40505         9.32541
   H      -10.45947        -3.87168         7.17297
   H       -8.58946        -5.67830         8.76847
   H      -10.53946        -6.51732         9.80932
   H      -12.94413        -6.44607        10.54763
   H      -14.96519        -4.85615        10.65129
   H      -16.51712        -3.02424        10.34947
   H      -17.58570        -0.72103         9.90166
   H      -17.04173         1.57054         8.85609
   H      -12.44244         3.72976         6.35444
   H      -14.65195         6.30449         6.20242
*
