# ORCA input file
# SCF done       -206.204128378293          0.000494580460
! CAM-B3LYP def2-SVP def2/J RIJCOSX Grid4 TightSCF
%maxcore 5000
%tddft
    Mode sTDDFT
    Ethresh 5.0
    maxcore 5000
end

%pal
  nprocs 6
  end
* xyz 0 1
   C       -9.27776        -4.02429        15.41266
   C       -9.37348        -3.94906        14.07909
   C       -9.67825        -2.79249        13.28409
   C       -9.70672        -3.01913        11.95386
   C       -9.42868        -4.36554        11.57943
   S       -9.12588        -5.33886        13.00968
   C       -9.38885        -4.88958        10.31471
   C       -9.60792        -4.21512         9.08210
   C       -9.50848        -5.00856         7.99090
   C       -9.19522        -6.37401         8.27292
   S       -9.05330        -6.58815        10.02038
   C       -8.96895        -7.33954         7.34764
   C       -8.68381        -8.72604         7.62463
   C       -9.30073        -9.37861         8.65477
   S       -8.94466       -11.05221         8.76182
   C       -7.89722       -10.91592         7.38400
   C       -7.82505        -9.61324         6.86826
   C       -6.92687        -9.34479         5.80499
   C       -6.69286        -7.90909         5.40681
   C       -7.52451        -7.45313         4.20500
   C       -6.22316       -10.38434         5.21094
   C       -5.37262       -10.17362         3.98837
   C       -6.15003       -10.56158         2.72616
   C       -6.31287       -11.69910         5.72985
   C       -5.58183       -12.89476         5.38678
   C       -5.87596       -13.93023         6.22050
   S       -7.04560       -13.56830         7.42656
   C       -7.13823       -11.93800         6.83958
   C       -4.59946       -13.10606         4.33153
   C       -3.41331       -13.67166         4.58049
   C       -2.40899       -13.98009         3.59022
   S       -0.75304       -13.63403         3.99428
   C       -0.20093       -14.17069         2.43877
   C       -1.24874       -14.56890         1.65613
   C       -2.50305       -14.50068         2.32134
   C       -3.75163       -15.10447         1.72749
   C       -4.12131       -16.35909         2.51925
   F       -4.47818       -16.12836         3.78955
   F       -5.16160       -17.00511         1.96189
   F       -3.11136       -17.24094         2.56851
   C       -3.57792       -15.53585         0.25690
   C       -2.49650       -14.73529        -0.45232
   C       -1.14331       -15.01097         0.21780
   O       -0.03863       -14.45665        -0.46453
   C       -0.12197       -13.08388        -0.76728
   C        1.21681       -14.06887         2.10110
   C        1.74553       -12.84342         1.84740
   S        3.40243       -12.86415         1.38935
   C        3.42765       -14.58751         1.58860
   C        2.19747       -15.12164         1.99637
   C        2.12034       -16.50582         2.28335
   C        0.81515       -17.05684         2.79586
   C        0.73039       -16.94905         4.32042
   C        3.24210       -17.31656         2.16117
   C        3.15932       -18.77403         2.53652
   C        3.01196       -19.66430         1.30188
   C        4.46511       -16.78513         1.67329
   C        5.73956       -17.40811         1.35819
   C        6.64406       -16.49103         0.89531
   S        6.07168       -14.87853         0.81641
   C        4.52449       -15.40963         1.39814
   C        6.12272       -18.79217         1.48123
   C        7.07112       -19.38993         0.71999
   C        7.51579       -20.73134         0.83204
   C        7.09398       -21.73067         1.66556
   C        7.63740       -23.04752         1.68218
   C        7.06256       -23.89448         2.57175
   C        6.01352       -23.31123         3.32750
   S        5.80613       -21.63358         2.85973
   C        5.23235       -23.89578         4.29114
   C        5.30143       -25.23407         4.77094
   C        4.40305       -25.52855         5.73549
   C        3.54249       -24.43892         6.10031
   S        3.95742       -23.02108         5.12414
   C        2.56986       -24.43545         7.02138
   H       -9.43500        -3.15368        16.02462
   H       -9.04351        -4.94663        15.91159
   H       -9.86283        -1.84117        13.75119
   H       -9.91887        -2.26672        11.21473
   H       -9.82591        -3.16249         9.04800
   H       -9.63975        -4.67182         6.97715
   H       -9.05660        -7.04577         6.31264
   H      -10.01487        -8.96499         9.33892
   H       -6.92337        -7.28047         6.26802
   H       -5.63477        -7.75658         5.18597
   H       -7.51769        -6.36707         4.13393
   H       -8.55483        -7.79175         4.29383
   H       -7.12082        -7.85170         3.27893
   H       -4.47265       -10.78628         4.06916
   H       -5.05523        -9.13661         3.89729
   H       -5.50584       -10.50428         1.85053
   H       -6.99487        -9.89439         2.57692
   H       -6.54717       -11.57066         2.80813
   H       -5.47784       -14.92410         6.15635
   H       -4.87300       -12.83752         3.32244
   H       -3.12280       -13.85772         5.60595
   H       -4.59642       -14.41784         1.82594
   H       -4.53052       -15.42698        -0.26295
   H       -3.30165       -16.59239         0.22071
   H       -2.72827       -13.66990        -0.39634
   H       -2.44648       -15.02796        -1.50167
   H       -0.94083       -16.09127         0.18171
   H        0.89063       -12.76864        -1.01328
   H       -0.48374       -12.50018         0.08475
   H       -0.77115       -12.90130        -1.63089
   H        1.23176       -11.90201         1.88814
   H       -0.00636       -16.49585         2.36119
   H        0.68166       -18.09353         2.49097
   H        0.86258       -15.91649         4.63569
   H        1.50309       -17.54662         4.79856
   H       -0.24160       -17.29501         4.66474
   H        2.31716       -18.95284         3.19970
   H        4.04575       -19.05445         3.10239
   H        2.08034       -19.44029         0.78641
   H        3.00656       -20.71123         1.59557
   H        3.83227       -19.50505         0.60648
   H        7.66486       -16.67967         0.62713
   H        5.64456       -19.37516         2.24574
   H        7.54190       -18.81932        -0.07007
   H        8.30830       -21.01758         0.15075
   H        8.44594       -23.31754         1.02506
   H        7.35605       -24.91993         2.70863
   H        6.02207       -25.93060         4.37964
   H        4.30774       -26.48578         6.21695
   H        2.35265       -25.32071         7.59259
   H        1.98023       -23.55927         7.21913
*
