# ORCA input file
# SCF done       -154.587196651069          0.000771179489
! CAM-B3LYP def2-SVP def2/J RIJCOSX Grid4 TightSCF
%maxcore 5000
%tddft
    Mode sTDDFT
    Ethresh 5.0
    maxcore 5000
end

%pal
  nprocs 6
  end
* xyz 0 1
   C       10.24397       -13.37090        10.99093
   C       10.07118       -12.26580        10.25231
   C       10.92352       -11.11494        10.17845
   C       10.48920       -10.15065         9.33547
   C        9.26650       -10.45320         8.67775
   S        8.68380       -12.02951         9.17716
   C        8.58701        -9.67038         7.77270
   C        8.93554        -8.38946         7.28693
   C        8.04507        -7.88141         6.39274
   C        6.93333        -8.71728         6.11349
   S        7.07705       -10.19366         7.05116
   C        5.98641        -8.40884         5.16167
   C        4.84956        -9.07232         4.68933
   S        4.30535        -8.56988         3.10544
   C        3.05304        -9.77061         3.03456
   C        3.01507       -10.50474         4.23777
   C        4.00783       -10.09731         5.17854
   C        4.00410       -10.66221         6.46276
   C        3.11576       -11.65528         6.79137
   C        3.11383       -12.27384         8.15386
   C        2.18265       -12.09374         5.83099
   C        2.11754       -11.52836         4.58851
   C        2.28258        -9.87085         1.86560
   S        0.98758       -11.03546         1.62178
   C        0.64313       -10.50079        -0.00871
   C        1.49940        -9.45762        -0.33194
   C        2.40076        -9.11335         0.71056
   S        3.41570        -7.80764         0.19570
   C        2.55089        -7.84642        -1.33994
   N        1.62597        -8.71321        -1.46426
   C       -0.35168       -11.08248        -0.82345
   C       -1.17991       -12.07895        -0.43112
   C       -2.16656       -12.65323        -1.28809
   C       -3.03898       -13.60971        -0.92844
   C       -3.09346       -14.20390         0.44747
   C       -4.05498       -14.18240        -1.89233
   N       -4.05539       -13.58464        -3.19839
   C       -3.36954       -14.05735        -4.24195
   C       -3.25109       -13.41669        -5.44217
   C       -2.55485       -13.99657        -6.50890
   C       -2.38282       -13.42700        -7.74901
   C       -1.67916       -14.00151        -8.87093
   C       -1.05274       -15.22387        -8.92808
   C       -0.38678       -15.72207       -10.06526
   N        0.16609       -16.19080       -10.95679
   C       -0.98088       -16.15876        -7.87711
   N       -0.88007       -16.97566        -7.07440
   C       -1.74874       -13.04539        -9.97431
   C       -2.47947       -11.91132        -9.54635
   C       -2.90359       -12.10665        -8.14246
   O       -3.54877       -11.31904        -7.47580
   C       -2.71977       -10.83340       -10.36152
   C       -2.21414       -10.87497       -11.66550
   C       -1.48467       -12.01115       -12.08415
   C       -1.24140       -13.10218       -11.25853
   S       -0.94953       -11.85621       -13.73147
   C       -1.70508       -10.28801       -13.83174
   C       -2.32524        -9.89826       -12.69358
  Br       -1.60252        -9.31203       -15.43119
   H       11.10332       -13.47469        11.62946
   H        9.53929       -14.18157        10.96975
   H       11.82531       -11.06215        10.76224
   H       11.00451        -9.22324         9.15820
   H        9.82910        -7.88301         7.60452
   H        8.14981        -6.92247         5.91571
   H        6.21976        -7.50652         4.60434
   H        4.69229       -10.29727         7.20512
   H        2.17124       -12.06965         8.66133
   H        3.92865       -11.88491         8.75824
   H        3.22144       -13.35480         8.07661
   H        1.49336       -12.88164         6.09752
   H        1.37435       -11.85804         3.88098
   H        2.82051        -7.15228        -2.11153
   H       -0.41996       -10.66885        -1.82117
   H       -1.09117       -12.45876         0.57707
   H       -2.18173       -12.26970        -2.30016
   H       -2.13832       -14.65684         0.70832
   H       -3.86346       -14.96871         0.50887
   H       -3.31056       -13.43715         1.18978
   H       -5.05526       -14.06878        -1.45596
   H       -3.86459       -15.25606        -2.00445
   H       -4.44302       -12.65461        -3.27678
   H       -2.91224       -15.02905        -4.09942
   H       -3.70021       -12.44553        -5.58361
   H       -2.12222       -14.97197        -6.32869
   H       -3.28092        -9.98351       -10.00567
   H       -0.67922       -13.94392       -11.62641
   H       -2.84016        -8.96164       -12.58081
*
