# ORCA input file
# SCF done       -132.757025579677          0.000642853429
! CAM-B3LYP def2-SVP def2/J RIJCOSX Grid4 TightSCF
%maxcore 5000
%tddft
    Mode sTDDFT
    Ethresh 5.0
    maxcore 5000
end

%pal
  nprocs 6
  end
* xyz 0 1
   C        1.41729       -16.15570         0.92145
   C        1.32414       -15.50232        -0.24531
   C        0.77550       -15.97465        -1.48252
   C        0.81092       -15.07631        -2.49429
   C        1.38633       -13.82433        -2.15624
   S        1.89325       -13.83978        -0.47193
   C        1.56075       -12.71811        -2.95189
   C        1.20277       -12.55567        -4.31280
   C        1.51137       -11.33135        -4.81781
   C        2.13315       -10.45358        -3.89493
   S        2.30392       -11.25079        -2.34172
   C        2.55905        -9.17310        -4.14965
   C        3.18326        -8.36015        -3.18408
   O        3.32991        -8.90743        -1.94502
   C        3.96272        -8.02410        -1.14098
   C        4.23718        -6.86298        -1.86566
   C        3.73860        -7.06928        -3.17086
   O        3.83944        -6.12042        -4.14541
   C        3.30074        -6.37715        -5.41713
   O        4.86837        -5.80650        -1.29714
   C        5.11837        -4.67429        -2.10065
   C        4.24575        -8.35095         0.20392
   C        3.86118        -9.52718         0.76432
   C        4.12079        -9.93236         2.08743
   S        5.06925        -8.97983         3.24071
   C        3.72382       -11.08992         2.71668
   N        2.92915       -12.17493         2.42934
   C        3.05343       -13.08937         3.55332
   O        3.73400       -12.40167         4.59228
   C        4.15854       -11.21919         4.05175
   C        4.90741       -10.17912         4.52581
   C        5.48583        -9.98217         5.80238
   S        5.21977       -11.13138         7.11447
   C        6.26856        -8.95853         6.26493
   N        6.88274        -7.83288         5.75197
   C        7.48709        -7.14775         6.88786
   O        7.38588        -8.00177         8.01706
   C        6.63485        -9.07182         7.62446
   C        6.16295       -10.17979         8.26547
   C        6.31079       -10.58935         9.61751
   S        7.17897        -9.60575        10.79255
   C        5.83453       -11.70681        10.24168
   N        5.17274       -12.87100         9.90119
   C        4.89866       -13.56196        11.15403
   O        5.61184       -12.89658        12.18608
   C        6.14396       -11.77025        11.62653
   C        6.85905       -10.72378        12.08937
   H        1.05702       -17.16482         1.01241
   H        1.84579       -15.70016         1.79540
   H        0.37621       -16.97054        -1.55803
   H        0.43958       -15.26712        -3.48595
   H        0.73100       -13.34102        -4.87599
   H        1.31481       -11.02538        -5.83104
   H        2.40428        -8.79574        -5.14587
   H        3.48194        -5.47088        -5.99483
   H        2.22385        -6.56307        -5.36643
   H        3.80290        -7.21971        -5.90258
   H        5.63366        -3.96714        -1.45244
   H        4.18961        -4.22929        -2.46476
   H        5.75410        -4.92152        -2.95374
   H        4.78804        -7.61146         0.77294
   H        3.30202       -10.23259         0.16356
   H        2.86527       -12.55243         1.49772
   H        3.62220       -14.00051         3.29328
   H        2.05973       -13.38430         3.92117
   H        6.41171        -7.28201         5.05215
   H        6.99000        -6.18936         7.11742
   H        8.55204        -6.95522         6.69133
   H        4.45115       -12.84827         9.19816
   H        5.25378       -14.60149        11.10036
   H        3.82385       -13.56779        11.40769
   H        7.21942       -10.51787        13.07458
*
