# ORCA input file
# SCF done       -162.319417625205          0.000658599868
! CAM-B3LYP def2-SVP def2/J RIJCOSX Grid4 TightSCF
%maxcore 5000
%tddft
    Mode sTDDFT
    Ethresh 5.0
    maxcore 5000
end

%pal
  nprocs 6
  end
* xyz 0 1
   C       -1.67592        -3.44304         5.17607
   C       -1.19876        -2.60704         6.17373
   C       -1.65380        -2.80134         7.47843
   C       -1.17980        -1.95682         8.51365
   N       -0.79326        -1.27154         9.34491
   C       -2.57608        -3.82040         7.78779
   C       -3.01164        -3.99828         9.12322
   N       -3.37437        -4.15970        10.19714
   C       -3.06071        -4.65416         6.77951
   C       -2.60556        -4.45184         5.49328
   C       -2.97274        -5.20207         4.27104
   O       -3.73913        -6.13395         4.20845
   C       -2.23706        -4.52864         3.16302
   C       -1.38555        -3.49919         3.74610
   C       -0.42664        -2.77323         3.09704
   C        0.39261        -1.80665         3.72200
   N        1.08017        -1.01058         4.17915
   C       -0.09010        -2.91722         1.73181
   N        0.25945        -2.99644         0.64221
   C       -2.46350        -4.72376         1.84208
   C       -3.29621        -5.75279         1.26176
   N       -4.09392        -5.36092         0.25906
   N       -4.84381        -6.18395        -0.35814
   C       -4.89595        -7.47652        -0.02887
   C       -4.11704        -7.97410         1.02615
   C       -3.27717        -7.09567         1.67041
   C       -5.77485        -8.31696        -0.82940
   C       -6.56208        -9.33882        -0.26873
   C       -7.46377       -10.11965        -1.07315
   N       -8.20745       -11.09244        -0.49593
   C       -8.09028       -11.28782         0.78388
   C       -7.21973       -10.50560         1.57867
   N       -6.48419        -9.56503         1.06457
   C       -7.56866        -9.92046        -2.46299
   C       -6.77628        -8.91172        -3.02424
   C       -5.89154        -8.10679        -2.20839
   N       -5.22206        -7.21208        -2.94347
   S       -5.68543        -7.34593        -4.46526
   N       -6.73757        -8.53760        -4.30805
   C       -8.40460       -10.76560        -3.29808
   N       -7.91665       -11.09127        -4.49537
   N       -8.53822       -11.87005        -5.28927
   C       -9.69039       -12.45424        -4.93560
   C      -10.30611       -12.13033        -3.71586
   C       -9.66262       -11.24099        -2.88980
   C      -10.28067       -13.36761        -5.88279
   C       -9.60456       -14.17301        -6.72961
   C      -10.29121       -14.77940        -7.90681
   O      -11.47922       -14.88291        -8.08373
   C       -9.19417       -15.16623        -8.82347
   C       -9.28319       -15.64918       -10.11272
   C       -8.09781       -15.91523       -10.79942
   C       -6.85292       -15.68240       -10.18180
   C       -6.77301       -15.20120        -8.87439
   C       -7.95181       -14.95023        -8.19213
   C       -8.18715       -14.48726        -6.82622
   C       -7.29846       -14.58043        -5.79514
   C       -7.64402       -14.36638        -4.44235
   N       -7.89599       -14.26767        -3.32774
   C       -5.95782       -14.99658        -5.94654
   N       -4.86177       -15.32497        -6.02486
   C       -5.66049       -15.94125       -10.90331
   N       -4.69423       -16.14425       -11.48237
   C       -8.14544       -16.41583       -12.12326
   N       -8.20396       -16.82003       -13.19287
   H       -0.49560        -1.81408         5.97479
   H       -3.77129        -5.43691         6.99788
   H       -2.05176        -4.02863         1.12150
   H       -4.15544        -9.01856         1.28665
   H       -2.59168        -7.43006         2.43183
   H       -8.69376       -12.07579         1.21295
   H       -7.13368       -10.66183         2.64525
   H      -11.24461       -12.58592        -3.44066
   H      -10.08808       -10.92022        -1.95393
   H      -11.36035       -13.35168        -5.97874
   H      -10.24312       -15.81597       -10.57744
   H       -5.80519       -15.02592        -8.43155
*
