# ORCA input file
# SCF done       -267.900726962256          0.000798811936
! CAM-B3LYP def2-SVP def2/J RIJCOSX Grid4 TightSCF
%maxcore 5000
%tddft
    Mode sTDDFT
    Ethresh 5.0
    maxcore 5000
end

%pal
  nprocs 6
  end
* xyz 0 1
   C       -1.19487         4.87555        -4.26402
   C       -0.13871         4.80322        -3.39060
   C        1.19875         4.58845        -3.78408
   N        2.30581         4.41301        -4.03352
   C       -0.20745         4.93697        -1.98845
   N       -0.16352         5.04067        -0.84491
   C       -1.08956         4.75590        -5.71514
   C       -2.37980         4.90563        -6.27854
   C       -2.61443         4.84666        -7.63025
   C       -1.51887         4.63035        -8.47225
   C       -0.23187         4.48311        -7.90277
   C        0.00352         4.54163        -6.53456
   S        0.98000         4.22640        -9.12161
   C       -0.24224         4.31959       -10.36172
   C       -1.49383         4.53115        -9.89029
  Br        0.24889         4.12768       -12.16158
   C       -3.35945         5.12736        -5.19874
   O       -4.55475         5.29212        -5.34371
   C       -2.59247         5.10004        -3.94219
   C       -3.10149         5.25591        -2.68059
   C       -4.41251         5.52537        -2.24439
   C       -4.70256         5.69980        -0.89906
   C       -6.04013         6.01836        -0.63645
   C       -6.80701         6.05942        -1.83515
   S       -5.83645         5.72719        -3.24453
   C       -8.17152         6.30241        -1.84098
   C       -8.96223         6.28837        -3.07611
   C      -10.13843         5.54479        -3.14712
   C      -10.88041         5.51448        -4.31118
   C      -10.47652         6.22565        -5.43448
   C       -9.30281         6.96680        -5.36044
   C       -8.55222         6.99749        -4.20223
   C      -11.26932         6.17527        -6.70406
   C       -8.77360         6.54451        -0.59034
   C       -8.01058         6.48868         0.60895
   C       -6.65241         6.24344         0.61982
   C       -5.87386         6.25404         1.86273
   C       -6.28803         5.51859         2.96897
   C       -5.55909         5.54671         4.14261
   C       -4.40644         6.31332         4.25039
   C       -3.99955         7.05455         3.14555
   C       -4.71778         7.02589         1.96788
   C       -3.61171         6.35498         5.51883
   S       -8.99583         6.85371         2.01402
   C      -10.38075         7.13831         0.98965
   C      -10.10475         6.92801        -0.34075
   C      -11.62040         7.57334         1.53905
   C      -11.77579         7.73307         2.93559
   C      -12.98156         8.21869         3.54509
   N      -13.02616         8.35449         4.88728
   C      -11.97930         8.03235         5.59322
   C      -10.79909         7.54746         4.99518
   N      -10.71840         7.41164         3.70297
   C      -14.10303         8.58212         2.75899
   C      -13.95245         8.41027         1.36828
   C      -12.74506         7.90439         0.75788
   N      -12.86383         7.82946        -0.57085
   S      -14.32176         8.34008        -1.00240
   N      -14.88815         8.68250         0.45612
   C      -15.30920         9.13270         3.29052
   C      -15.68848         9.23156         4.60641
   C      -16.91882         9.89134         4.79702
   C      -17.50364        10.28265         3.56182
   S      -16.50279         9.82328         2.20889
   C      -18.69858        10.97265         3.48235
   C      -19.23965        11.46952         2.21183
   C      -19.41051        10.62502         1.11874
   C      -19.92681        11.11310        -0.06558
   C      -20.27984        12.45168        -0.19738
   C      -20.09176        13.29617         0.89017
   C      -19.57888        12.81435         2.07852
   C      -20.82289        12.97584        -1.49052
   C      -19.35807        11.22953         4.70176
   C      -18.78414        10.81874         5.93593
   C      -17.56246        10.17343         6.01879
   C      -16.95408         9.81055         7.30446
   C      -17.68086         9.10835         8.26119
   C      -17.10309         8.76464         9.46833
   C      -15.79155         9.11700         9.75854
   C      -15.07142         9.82750         8.80399
   C      -15.63885        10.16924         7.59323
   C      -15.16739         8.76414        11.07335
   S      -19.78956        11.28385         7.28038
   C      -20.95820        12.02465         6.20089
   C      -20.58744        11.88736         4.88372
   C      -22.14160        12.58453         6.73559
   C      -23.02809        13.43197         6.14044
   C      -22.96318        14.22748         4.93414
   C      -21.83919        14.79441         4.38944
   C      -21.83611        15.57986         3.22143
   N      -21.76771        16.19449         2.25364
   C      -20.56329        14.70598         4.98227
   N      -19.51610        14.71108         5.45239
   C      -24.33356        14.55067         4.55187
   C      -25.19832        14.18237         5.61311
   C      -24.40811        13.53964         6.68458
   O      -24.80124        13.14030         7.75624
   C      -26.55207        14.41037         5.57152
   C      -27.07710        15.01847         4.42582
   C      -26.20629        15.36801         3.36632
   C      -24.83530        15.14657         3.41110
   S      -27.06730        16.09705         2.04508
   C      -28.56432        15.93077         2.92372
   C      -28.42902        15.35642         4.14236
  Br      -30.16330        16.52840         2.14691
   H       -3.61149         4.96480        -8.02464
   H        1.00364         4.42237        -6.15342
   H       -2.36461         4.61419       -10.51464
   H       -2.39720         5.18157        -1.86055
   H       -3.95460         5.58699        -0.13366
   H      -10.45569         4.96727        -2.29109
   H      -11.78640         4.92619        -4.34987
   H       -8.97306         7.52766        -6.22305
   H       -7.65273         7.59290        -4.16167
   H      -12.30445         5.90639        -6.50748
   H      -10.84650         5.42690        -7.37520
   H      -11.24316         7.13478        -7.21591
   H       -7.17475         4.90662         2.89999
   H       -5.89181         4.96174         4.98824
   H       -3.10885         7.66269         3.21367
   H       -4.40105         7.62841         1.12876
   H       -4.06141         5.72648         6.28319
   H       -3.55394         7.37539         5.89609
   H       -2.59394         6.01092         5.33906
   H      -10.84137         7.08004        -1.10778
   H      -12.06335         8.15828         6.66427
   H       -9.92668         7.27646         5.57249
   H      -15.09126         8.83132         5.40306
   H      -19.15619         9.57939         1.20755
   H      -20.06210        10.44352        -0.90302
   H      -20.34941        14.34266         0.80835
   H      -19.40548        13.48932         2.90417
   H      -20.00367        13.18232        -2.17993
   H      -21.37305        13.90016        -1.33311
   H      -21.47882        12.24602        -1.96063
   H      -18.69636         8.80870         8.04805
   H      -17.68048         8.21182        10.19537
   H      -14.05245        10.11895         9.01655
   H      -15.07127        10.73907         6.87266
   H      -15.73579         7.98789        11.57945
   H      -15.13903         9.64200        11.71937
   H      -14.14416         8.41992        10.93552
   H      -21.20856        12.19569         4.06135
   H      -22.42737        12.24253         7.72543
   H      -27.18757        14.13042         6.39687
   H      -24.20939        15.42514         2.57936
   H      -29.24743        15.17734         4.81543
*
