# ORCA input file
# SCF done       -218.242629188334          0.000758719233
! CAM-B3LYP def2-SVP def2/J RIJCOSX Grid4 TightSCF
%maxcore 5000
%tddft
    Mode sTDDFT
    Ethresh 5.0
    maxcore 5000
end

%pal
  nprocs 6
  end
* xyz 0 1
   C        6.65506        11.52675         1.10001
   C        5.53322        10.76490         0.91423
   C        4.88094        10.06458         1.94893
   N        4.33536         9.44532         2.74736
   C        4.85284        10.63495        -0.31537
   N        4.20854        10.53808        -1.26002
   C        7.21632        11.90010         2.39287
   C        8.04448        13.04717         2.21458
   C        8.67416        13.64596         3.26763
   C        8.50877        13.11168         4.56544
   C        7.69366        11.95711         4.74758
   C        7.04960        11.36024         3.64027
   C        7.54001        11.43128         6.04669
   C        8.15868        12.01760         7.11673
   C        8.96119        13.15432         6.93684
   C        9.13209        13.68963         5.68910
   C        8.08616        13.40276         0.78364
   O        8.63955        14.34368         0.26381
   C        7.35028        12.30632         0.08845
   C        7.51015        12.11514        -1.24173
   C        7.18290        10.92933        -1.99374
   C        6.74779        11.03407        -3.32002
   C        6.34819         9.92013        -4.03158
   C        6.40996         8.67582        -3.41999
   C        6.91075         8.55380        -2.11069
   C        7.29951         9.66124        -1.40443
   C        6.87831         7.11636        -1.65019
   C        8.29003         6.57526        -1.40125
   C        6.01050         6.96302        -0.39727
   C        6.24653         6.44042        -2.84399
   C        5.89082         5.12383        -2.98036
   C        5.27114         4.69378        -4.16226
   C        5.06451         5.60967        -5.19949
   C        5.42882         6.93568        -5.06609
   C        6.00461         7.36203        -3.87677
   C        4.80659         3.31458        -4.22553
   C        3.57123         2.94257        -4.78674
   C        3.01361         1.61956        -4.59236
   N        1.84092         1.30383        -5.17160
   C        1.19028         2.20627        -5.85513
   C        1.70116         3.54599        -5.97165
   N        2.85599         3.86629        -5.45600
   C        0.95877         4.52528        -6.67819
   N        0.33066         5.28287        -7.26454
   C       -0.03192         1.85132        -6.47785
   N       -1.03437         1.60124        -6.97306
   C        3.65922         0.63271        -3.82173
   C        4.96397         0.95342        -3.40785
   C        5.51746         2.27833        -3.59553
   N        6.75107         2.37045        -3.08350
   S        7.16227         0.96426        -2.44338
   N        5.81701         0.15633        -2.75407
   C        2.98757        -0.57665        -3.37477
   C        3.70398        -1.75933        -3.15060
   C        3.10390        -2.86297        -2.58049
   C        1.76568        -2.78800        -2.21655
   C        1.02470        -1.62444        -2.48495
   C        1.62189        -0.53053        -3.05789
   C       -0.40142        -1.77278        -2.00694
   C       -0.78762        -0.66625        -1.02252
   C       -1.36672        -1.79393        -3.19816
   C       -0.34744        -3.12361        -1.32986
   C       -1.32087        -3.75990        -0.60302
   C       -1.01853        -4.97496         0.03390
   C        0.22693        -5.57819        -0.18027
   C        1.19209        -4.96151        -0.94978
   C        0.92038        -3.71308        -1.49266
   C       -2.01484        -5.54750         0.90447
   C       -1.79516        -6.12593         2.11196
   C       -2.82444        -6.67582         2.98379
   C       -4.07328        -7.08347         2.59961
   C       -5.02979        -7.63047         3.48066
   N       -5.84975        -8.07461         4.14997
   C       -4.56198        -7.04427         1.27609
   N       -5.02176        -7.05904         0.22413
   C       -2.26502        -6.78313         4.32377
   C       -0.89313        -6.40710         4.27159
   C       -0.52642        -6.03934         2.89189
   O        0.56814        -5.68572         2.51361
   C       -0.10231        -6.40469         5.38432
   C       -0.65933        -6.78359         6.62576
   C       -2.03379        -7.15461         6.68841
   C       -2.82742        -7.14913         5.51873
   C       -2.58063        -7.52271         7.93484
   C       -1.80885        -7.52628         9.06457
   C       -0.45534        -7.16233         9.00114
   C        0.10721        -6.79963         7.80765
   H        9.29141        14.51848         3.11334
   H        6.44512        10.48172         3.80443
   H        6.91816        10.55814         6.17995
   H        8.03259        11.60926         8.10827
   H        9.44314        13.60346         7.79226
   H        9.74856        14.56486         5.54523
   H        7.98159        12.92976        -1.78205
   H        6.67730        12.01389        -3.76842
   H        5.98014        10.02040        -5.04101
   H        7.70367         9.56924        -0.40617
   H        8.76117         7.10929        -0.57922
   H        8.90212         6.69718        -2.29230
   H        8.24695         5.51764        -1.15320
   H        6.46352         7.47913         0.44641
   H        5.90180         5.91272        -0.13870
   H        5.02196         7.38360        -0.57040
   H        6.04948         4.42571        -2.17405
   H        4.61593         5.27089        -6.11897
   H        5.25493         7.62941        -5.87440
   H        4.74589        -1.79726        -3.42412
   H        3.67373        -3.76221        -2.40230
   H        1.06271         0.37751        -3.21720
   H       -0.75645         0.30329        -1.51337
   H       -0.09991        -0.65341        -0.17934
   H       -1.79496        -0.82882        -0.64743
   H       -1.33198        -0.84541        -3.72861
   H       -2.38406        -1.96700        -2.85592
   H       -1.09324        -2.58672        -3.89084
   H       -2.29488        -3.31390        -0.46185
   H        0.42254        -6.54797         0.24728
   H        2.15015        -5.43346        -1.10412
   H       -3.04151        -5.41176         0.58283
   H        0.93604        -6.11537         5.31705
   H       -3.86660        -7.42642         5.59935
   H       -3.62270        -7.80346         7.97871
   H       -2.23711        -7.80974        10.01430
   H        0.13875        -7.16987         9.90277
   H        1.14855        -6.51754         7.75223
*
