# ORCA input file
# SCF done       -193.711815696659          0.000846997602
! CAM-B3LYP def2-SVP def2/J RIJCOSX Grid4 TightSCF
%maxcore 5000
%tddft
    Mode sTDDFT
    Ethresh 5.0
    maxcore 5000
end

%pal
  nprocs 6
  end
* xyz 0 1
   C       -5.54704        -3.37665        -2.36034
   C       -6.64043        -4.07502        -1.91757
   C       -6.69938        -5.48148        -1.82598
   N       -6.80709        -6.62006        -1.72694
   C       -7.85156        -3.49529        -1.48636
   N       -8.86221        -3.09182        -1.11843
   C       -4.29445        -3.96176        -2.82291
   C       -3.41517        -2.92002        -3.20821
   C       -2.14675        -3.15619        -3.67933
   C       -1.72756        -4.48611        -3.78670
   C       -2.61324        -5.52152        -3.40205
   C       -3.89289        -5.28216        -2.91836
   S       -1.89175        -7.08889        -3.60858
   C       -0.43166        -6.34264        -4.20148
   C       -0.47930        -4.98966        -4.24353
  Br        1.01852        -7.41947        -4.70600
   C       -4.07266        -1.61657        -2.99152
   O       -3.55572        -0.52453        -3.07519
   C       -5.43730        -1.93572        -2.50145
   C       -6.33964        -0.99755        -2.10629
   C       -6.31567         0.38044        -2.45804
   N       -6.73234         1.34786        -1.58745
   C       -6.99899         1.19802        -0.18288
   C       -5.72928         0.88290         0.60298
   N       -6.73486         2.53833        -2.14740
   C       -6.39449         2.37598        -3.42203
   C       -6.09938         1.02777        -3.68579
   C       -5.81608         0.39929        -5.00874
   C       -4.47374         0.82053        -5.60852
   C       -6.32968         3.54365        -4.34314
   C       -4.98470         4.27619        -4.20296
   C       -4.86184         5.37726        -5.19820
   C       -4.43574         6.61120        -4.92105
   C       -4.31339         7.66454        -5.88737
   S       -4.90788         7.47482        -7.50711
   C       -4.39332         9.08386        -7.94776
   C       -3.80363         9.71971        -6.87133
   C       -3.75803         8.91465        -5.71325
   C       -3.17423         9.39528        -4.41874
   C       -2.33070        10.64873        -4.62893
   C       -3.10760        11.67327        -5.46724
   N       -2.48096        12.98144        -5.55656
   C       -3.28902        11.12337        -6.88389
   C       -4.67125         9.50576        -9.28166
   C       -4.14871        10.55411        -9.95135
   C       -4.56782        10.86692       -11.28565
   C       -4.11023        11.84864       -12.07856
   C       -3.00178        12.79781       -11.75276
   C       -4.70513        12.03360       -13.45568
   N       -3.72919        11.75909       -14.48431
   C       -3.18168        12.67075       -15.28442
   C       -2.12488        12.42876       -16.11689
   C       -1.60179        13.41149       -16.96195
   C       -0.48696        13.32781       -17.76086
   C        0.59467        12.38093       -17.79379
   C        1.06988        11.62559       -16.74568
   C        2.16908        10.75129       -16.84173
   N        3.04312        10.00578       -16.86715
   C        0.58764        11.70873       -15.42641
   N        0.25743        11.76301       -14.32634
   C        1.26305        12.52767       -19.08687
   C        0.73755        13.67072       -19.73843
   C       -0.33430        14.25382       -18.89952
   O       -0.98058        15.25615       -19.12349
   C        1.18209        14.08866       -20.96763
   C        2.18412        13.33541       -21.59060
   C        2.69367        12.19046       -20.93688
   C        2.25171        11.77307       -19.68644
   S        3.91228        11.39863       -21.89144
   C        3.72380        12.60394       -23.13714
   C        2.79744        13.54978       -22.85612
  Br        4.76523        12.49603       -24.69455
   H       -1.49880        -2.34038        -3.95916
   H       -4.52653        -6.10481        -2.63227
   H        0.33213        -4.37096        -4.58085
   H       -7.16847        -1.30043        -1.47725
   H       -7.74045         0.40501        -0.03902
   H       -7.42458         2.14709         0.14859
   H       -5.29224        -0.05457         0.26549
   H       -5.96040         0.79936         1.66112
   H       -4.99710         1.67442         0.46444
   H       -6.61804         0.67195        -5.70301
   H       -5.83198        -0.68731        -4.89308
   H       -4.48206         1.87159        -5.88031
   H       -4.26994         0.23565        -6.50292
   H       -3.67596         0.65111        -4.89069
   H       -7.13544         4.23607        -4.09437
   H       -6.46180         3.20685        -5.37256
   H       -4.17576         3.55542        -4.36132
   H       -4.88879         4.66430        -3.18787
   H       -5.13733         5.12971        -6.21610
   H       -4.14966         6.86750        -3.90961
   H       -2.56531         8.60828        -3.96763
   H       -3.99070         9.61944        -3.72347
   H       -1.40405        10.38990        -5.14873
   H       -2.06576        11.07934        -3.65959
   H       -4.09474        11.82447        -5.01336
   H       -1.54104        12.89491        -5.93085
   H       -2.40817        13.40487        -4.63803
   H       -2.31873        11.15240        -7.39237
   H       -3.97222        11.77170        -7.43570
   H       -5.37847         8.87169        -9.80490
   H       -3.39406        11.17294        -9.49820
   H       -5.36299        10.23663       -11.66870
   H       -2.69340        12.71837       -10.71649
   H       -3.31592        13.82408       -11.94249
   H       -2.13363        12.59737       -12.38287
   H       -5.05134        13.06319       -13.58427
   H       -5.55908        11.36064       -13.58949
   H       -3.28733        10.85047       -14.43872
   H       -3.62593        13.65754       -15.25075
   H       -1.68886        11.44094       -16.11943
   H       -2.17388        14.32623       -17.07749
   H        0.76878        14.96683       -21.43846
   H        2.66693        10.88999       -19.22957
   H        2.55313        14.36496       -23.51255
*
