# ORCA input file
# SCF done       -193.210624139444          0.000595156393
! CAM-B3LYP def2-SVP def2/J RIJCOSX Grid4 TightSCF
%maxcore 5000
%tddft
    Mode sTDDFT
    Ethresh 5.0
    maxcore 5000
end

%pal
  nprocs 6
  end
* xyz 0 1
   C        2.32269         3.51364       -12.85048
   C        3.17472         3.27995       -13.89279
   C        2.90701         2.36293       -14.93428
   N        2.75399         1.63144       -15.80487
   C        4.45097         3.85893       -14.07192
   N        5.50098         4.26118       -14.30176
   C        1.04591         2.85442       -12.63725
   C        0.58933         3.15749       -11.32887
   C       -0.57548         2.63708       -10.81763
   C       -1.35496         1.83937       -11.65729
   C       -0.91621         1.57754       -12.97879
   C        0.28701         2.05771       -13.47799
   S       -2.07022         0.61902       -13.85070
   C       -3.11581         0.59974       -12.45313
   C       -2.62085         1.25880       -11.37962
  Br       -4.77673        -0.25948       -12.55812
   C        1.51531         4.09688       -10.68019
   O        1.46316         4.47417        -9.53222
   C        2.53838         4.43129       -11.72571
   C        3.45532         5.41903       -11.71303
   C        3.61724         6.48747       -10.73874
   N        4.79479         7.11928       -10.77784
   C        4.95864         8.12933        -9.94392
   C        3.96658         8.54440        -9.06925
   C        2.76369         7.82755        -9.10366
   N        2.60820         6.81186        -9.95210
   C        1.63842         8.13023        -8.24604
   C        0.65244         7.22753        -8.11849
   N       -0.47047         7.40368        -7.36404
   C       -1.44460         6.47931        -7.20409
   S       -1.28685         4.91467        -7.93048
   C       -2.88074         4.49968        -7.34537
   N       -3.43522         3.28131        -7.72591
   O       -4.57519         3.03020        -7.38061
   O       -2.74246         2.55144        -8.42534
   C       -3.47136         5.50456        -6.63244
   C       -2.66956         6.66130        -6.53154
   C       -3.19687         7.83347        -5.90556
   C       -2.56823         8.95226        -5.45547
   C       -3.23137        10.09143        -4.93807
   C       -4.54133        10.45930        -5.11459
   C       -5.18201        11.56823        -4.49915
   C       -6.49755        11.71362        -4.81712
   C       -6.97511        10.73876        -5.72273
   S       -5.68919         9.64627        -6.16946
   C       -8.26178        10.51387        -6.17609
   C       -9.48854        11.07305        -5.76082
   C      -10.57769        10.43098        -6.27150
   C      -10.27829         9.32250        -7.10627
   S       -8.55270         9.20988        -7.30744
   C      -11.22006         8.49505        -7.69593
   C      -11.06817         7.34521        -8.47174
   C       -9.98360         6.52193        -8.71101
   C       -9.96216         5.68376        -9.93897
   O      -10.89347         5.43742       -10.67074
   C       -8.54226         5.28814       -10.11365
   C       -7.93444         4.65446       -11.15717
   C       -6.52061         4.57614       -11.18119
   C       -5.77003         5.18360       -10.13427
   C       -4.36873         5.24862       -10.24935
   C       -3.73477         4.69212       -11.32383
   C       -4.47211         4.02635       -12.31869
   C       -5.83669         3.97268       -12.25443
   F       -3.81897         3.46858       -13.35320
   F       -2.39990         4.80234       -11.44670
   C       -6.43106         5.74366        -9.01566
   C       -7.79585         5.77601        -9.00383
   C       -8.73748         6.33507        -8.03810
   C       -8.50432         6.48230        -6.68759
   C       -9.52327         6.80219        -5.77012
   N      -10.33444         7.07211        -5.00378
   C       -7.25461         6.28545        -6.08356
   N       -6.24647         6.19413        -5.53871
   H       -0.90141         2.84436        -9.81192
   H        0.58792         1.82707       -14.48637
   H       -3.11274         1.35171       -10.42793
   H        4.16722         5.49615       -12.52468
   H        5.92028         8.62478        -9.98862
   H        4.11297         9.37236        -8.39467
   H        1.63909         9.07355        -7.71839
   H        0.74809         6.28202        -8.63674
   H       -0.62470         8.31305        -6.94469
   H       -4.45295         5.42196        -6.19418
   H       -4.26325         7.75982        -5.73850
   H       -1.48694         8.98975        -5.39260
   H       -2.63069        10.77246        -4.34782
   H       -4.64948        12.21187        -3.82100
   H       -7.13436        12.49026        -4.43351
   H       -9.53657        11.89630        -5.07111
   H      -11.59515        10.68844        -6.03748
   H      -12.24101         8.83665        -7.57322
   H      -11.94138         7.07133        -9.05734
   H       -8.51385         4.24993       -11.97287
   H       -3.79284         5.76882        -9.50075
   H       -6.38795         3.47854       -13.03911
   H       -5.84460         6.16891        -8.21664
*
