# ORCA input file
# SCF done       -198.641390236730          0.000647936869
! CAM-B3LYP def2-SVP def2/J RIJCOSX Grid4 TightSCF
%maxcore 5000
%tddft
    Mode sTDDFT
    Ethresh 5.0
    maxcore 5000
end

%pal
  nprocs 6
  end
* xyz 0 1
   C       -2.81787         3.87668         1.50504
   C       -2.70199         2.52916         1.74175
   C       -1.56608         1.92040         2.31709
   N       -0.67419         1.36644         2.78008
   C       -3.68125         1.56453         1.44701
   N       -4.44215         0.72800         1.23557
   C       -1.81611         4.88366         1.83547
   C       -2.28603         6.15348         1.41516
   C       -1.56838         7.30935         1.59983
   C       -0.32898         7.21168         2.24170
   C        0.13391         5.93999         2.65792
   C       -0.58946         4.76974         2.46288
   S        1.68571         6.04658         3.43013
   C        1.69043         7.77350         3.19235
   C        0.58798         8.24808         2.56330
  Br        3.14993         8.78590         3.79036
   C       -3.61202         5.99891         0.79450
   O       -4.25681         6.85466         0.21676
   C       -3.94921         4.56947         0.92455
   C       -5.10165         3.98641         0.47270
   N       -6.22015         4.60755         0.06260
   C       -6.66694         5.84839         0.46068
   S       -6.49615         6.36969         2.10746
   C       -7.47590         7.74908         1.75800
   N       -7.69576         8.67045         2.79522
   O       -8.39063         9.63667         2.55628
   O       -7.16692         8.42258         3.86383
   C       -7.91917         7.79242         0.46483
   C       -7.45423         6.70443        -0.30183
   C       -7.72959         6.59702        -1.71633
   C       -6.94649         5.94294        -2.58643
   N       -7.09073         5.85556        -3.95655
   C       -7.91990         6.52052        -4.80554
   S       -9.13998         7.63759        -4.30011
   C       -9.48618         8.01610        -5.95825
   N      -10.49549         8.94800        -6.20593
   O      -10.74053         9.22806        -7.36448
   O      -11.05643         9.41251        -5.22669
   C       -8.70108         7.32529        -6.84100
   C       -7.81421         6.44309        -6.20324
   C       -6.89367         5.60818        -6.94677
   C       -6.53173         4.35684        -6.62299
   N       -5.64102         3.63576        -7.38885
   C       -5.14727         2.38901        -7.19313
   S       -4.46227         1.59332        -8.57876
   C       -4.15227         0.18370        -7.61196
   N       -3.53329        -0.90298        -8.24712
   O       -3.34237        -1.90786        -7.59386
   O       -3.24477        -0.74513        -9.42058
   C       -4.55236         0.32026        -6.31655
   C       -5.11941         1.58606        -6.03859
   C       -5.53942         1.98876        -4.73133
   C       -5.78941         1.14767        -3.69967
   C       -6.26817         1.61560        -2.45238
   C       -6.44041         0.89631        -1.30846
   C       -5.96828        -0.42001        -0.92274
   C       -4.81007        -1.01028        -1.35096
   C       -4.36453        -2.27561        -0.91427
   N       -3.98202        -3.31437        -0.61429
   C       -3.88245        -0.35248        -2.18476
   N       -3.09575         0.19026        -2.82067
   C       -6.80251        -0.86802         0.18337
   C       -7.61740         0.21716         0.60491
   C       -7.37036         1.36903        -0.26174
   O       -7.86288         2.48680        -0.18648
   C       -8.46597         0.12680         1.68406
   C       -8.52294        -1.09095         2.36698
   C       -7.71573        -2.17101         1.92957
   C       -6.84973        -2.07745         0.84628
   S       -7.94825        -3.58045         2.91280
   C       -9.10534        -2.71539         3.89085
   C       -9.31066        -1.43491         3.49902
  Br       -9.93753        -3.58561         5.32680
   H       -1.95474         8.26102         1.27034
   H       -0.19292         3.82625         2.79845
   H        0.42693         9.28624         2.33708
   H       -5.14438         2.90891         0.38419
   H       -6.95307         3.98063        -0.30172
   H       -8.53188         8.58958         0.08420
   H       -8.58713         7.16037        -2.04522
   H       -6.06670         5.42491        -2.23280
   H       -6.32682         5.39931        -4.43981
   H       -8.78323         7.44195        -7.90623
   H       -6.51091         6.04625        -7.85956
   H       -6.97513         3.82561        -5.79714
   H       -5.40622         4.05619        -8.28058
   H       -4.38898        -0.44782        -5.58344
   H       -5.61636         3.05013        -4.54258
   H       -5.69463         0.08183        -3.83736
   H       -6.64590         2.63410        -2.42825
   H       -9.06305         0.96986         1.99515
   H       -6.25091        -2.92333         0.55149
   H       -9.98962        -0.76012         3.98756
*
