# ORCA input file
# SCF done       -183.011713708302          0.000790703311
! CAM-B3LYP def2-SVP def2/J RIJCOSX Grid4 TightSCF
%maxcore 5000
%tddft
    Mode sTDDFT
    Ethresh 5.0
    maxcore 5000
end

%pal
  nprocs 6
  end
* xyz 0 1
   C       -9.22900         3.63994         2.91469
   C       -9.19332         4.00513         1.58999
   C      -10.32971         4.08082         0.76180
   N      -11.21931         4.16887         0.04042
   C       -8.02074         4.30870         0.86967
   N       -7.10774         4.53404         0.20937
   C      -10.41368         3.19784         3.64035
   C      -10.01909         2.77980         4.93419
   C      -10.90932         2.29631         5.86004
   C      -12.25764         2.22130         5.49179
   C      -12.64356         2.64757         4.20004
   C      -11.74192         3.13626         3.26226
   S      -14.35727         2.48001         3.95734
   C      -14.52682         1.84522         5.57215
   C      -13.36341         1.76271         6.25938
  Br      -16.22446         1.34909         6.19979
   C       -8.56235         2.97637         5.09090
   O       -7.92283         2.80049         6.10971
   C       -8.09456         3.52753         3.80457
   C       -6.84772         4.05828         3.57273
   C       -5.66889         3.83915         4.30521
   S       -4.45093         5.09249         4.28852
   C       -3.45625         4.17252         5.33316
   C       -3.98064         2.96048         5.67127
   C       -3.24174         1.98479         6.52510
   C       -5.25499         2.73992         5.07133
   C       -5.98609         1.50916         5.06597
   C       -6.02265         0.57607         6.04316
   C       -6.74605        -0.64264         5.91758
   C       -6.87926        -1.54064         6.91966
   C       -7.56594        -2.78487         6.76950
   C       -7.79813        -3.68542         7.74159
   C       -7.37500        -3.51022         9.16791
   C       -8.47320        -4.99433         7.42002
   N       -7.53532        -6.08649         7.58272
   C       -7.47105        -6.83709         8.70866
   C       -6.36100        -7.49673         9.13056
   C       -6.34301        -8.36119        10.24134
   C       -5.21614        -8.95426        10.74328
   C       -5.12781        -9.85092        11.83638
   C       -3.86452       -10.26403        12.12652
   C       -2.86906        -9.70772        11.28937
   S       -3.60311        -8.65915        10.09394
   C       -1.50507        -9.88889        11.35856
   C       -0.77475       -10.70069        12.25633
   C        0.57129       -10.63840        12.08811
   C        1.00843        -9.76457        11.05055
   S       -0.40440        -9.05049        10.27968
   C        2.31886        -9.52086        10.75832
   C        2.91286        -8.64823         9.79345
   C        4.30713        -8.49115         9.81139
   C        4.97732        -7.64423         8.94617
   C        4.23114        -6.92716         7.99017
   C        2.84416        -7.08303         7.95587
   C        2.19517        -7.91686         8.83461
   N        4.85827        -6.08127         7.06872
   C        6.00902        -6.50726         6.39712
   C        6.18599        -7.85529         6.08705
   C        7.33234        -8.27522         5.44158
   C        8.31279        -7.36382         5.08697
   C        8.13853        -6.02226         5.38640
   C        7.00005        -5.59294         6.03863
   C        4.25491        -4.86213         6.74405
   C        3.61031        -4.11981         7.73434
   C        3.00790        -2.91726         7.42202
   C        3.04391        -2.43002         6.12559
   C        3.68435        -3.16193         5.13910
   C        4.28194        -4.37054         5.43903
   C        6.42349        -7.45134         9.06748
   C        7.28749        -8.40145         9.39244
   H      -10.57696         1.98450         6.83777
   H      -12.08554         3.45393         2.29212
   H      -13.28601         1.39636         7.26674
   H       -6.75300         4.77352         2.76367
   H       -2.51205         4.57596         5.64524
   H       -2.19044         2.25789         6.57924
   H       -3.32858         0.97986         6.11643
   H       -3.64417         1.98193         7.53747
   H       -6.58801         1.34111         4.17865
   H       -5.53715         0.75796         6.98903
   H       -7.20631        -0.84660         4.95827
   H       -6.44366        -1.31531         7.88268
   H       -7.92930        -2.99957         5.77139
   H       -6.37850        -3.08071         9.23938
   H       -7.37299        -4.46512         9.68967
   H       -8.06501        -2.84272         9.68468
   H       -8.83571        -4.99279         6.38724
   H       -9.32042        -5.17046         8.08834
   H       -6.65932        -5.95971         7.09248
   H       -8.40371        -6.93150         9.25028
   H       -5.42988        -7.35717         8.59666
   H       -7.27994        -8.56939        10.74170
   H       -6.00759       -10.16294        12.37203
   H       -3.61743       -10.94331        12.92277
   H       -1.26423       -11.30425        12.99993
   H        1.28190       -11.18551        12.68292
   H        3.02617       -10.05730        11.38092
   H        4.88045        -9.01840        10.56018
   H        2.27769        -6.53860         7.21406
   H        1.12473        -8.01555         8.76557
   H        5.41800        -8.56693         6.35224
   H        7.45647        -9.32199         5.20640
   H        9.20633        -7.69546         4.58041
   H        8.89991        -5.30468         5.11777
   H        6.87344        -4.54815         6.28337
   H        3.58773        -4.49450         8.74730
   H        2.51334        -2.35282         8.19889
   H        2.57538        -1.48769         5.88536
   H        3.71093        -2.79370         4.12400
   H        4.76703        -4.94498         4.66356
   H        6.77791        -6.44580         8.87919
   H        6.97994        -9.42108         9.55454
   H        8.34000        -8.19884         9.48902
*
