# ORCA input file
# SCF done       -211.209792063829          0.000627282484
! CAM-B3LYP def2-SVP def2/J RIJCOSX Grid4 TightSCF
%maxcore 5000
%tddft
    Mode sTDDFT
    Ethresh 5.0
    maxcore 5000
end

%pal
  nprocs 6
  end
* xyz 0 1
   C      -13.46530        -1.28627        -8.98266
   C      -13.31402        -0.13032        -9.69716
   F      -14.29854         0.30368       -10.49202
   C      -12.12223         0.61667        -9.60787
   F      -11.99731         1.74505       -10.31786
   C      -11.09915         0.19805        -8.80365
   C      -11.22742        -0.98594        -8.05188
   C      -12.43027        -1.74377        -8.14338
   C      -12.57757        -2.94033        -7.40319
   C      -11.55851        -3.36057        -6.59140
   C      -10.36319        -2.59051        -6.49816
   C      -10.18851        -1.43759        -7.20825
   C       -9.44751        -3.24974        -5.55693
   O       -8.33484        -2.86520        -5.20925
   C      -10.13094        -4.46059        -5.10056
   C      -11.43042        -4.53432        -5.72669
   C      -12.38238        -5.50426        -5.55143
   C      -12.23057        -6.61622        -4.69786
   N      -12.14757        -7.53208        -4.01082
   C      -13.63670        -5.50889        -6.19555
   N      -14.67177        -5.56207        -6.68837
   C       -9.54378        -5.33192        -4.21177
   N       -8.33421        -5.08030        -3.70690
   C       -7.62555        -5.87085        -2.85382
   S       -8.10175        -7.51280        -2.53887
   C       -6.68002        -7.71565        -1.57152
   N       -6.47134        -8.96407        -0.96394
   O       -5.46779        -9.10140        -0.29230
   O       -7.31674        -9.81672        -1.16241
   C       -5.89666        -6.59510        -1.50233
   C       -6.43372        -5.50850        -2.21925
   C       -5.80481        -4.20901        -2.27013
   C       -6.44847        -3.04090        -2.43243
   C       -5.79456        -1.76707        -2.57522
   C       -6.48982        -0.69919        -2.89258
   C       -7.26533         0.24820        -3.30848
   C       -7.59232         0.46388        -4.78473
   C       -8.66087         1.49511        -4.70017
   C       -8.88326         1.92219        -3.44765
   C       -8.00913         1.25356        -2.44034
   C       -9.91869         2.94171        -3.44131
   C      -10.31445         3.11656        -4.72964
   C       -9.55430         2.21085        -5.65196
   C      -10.39028         3.58174        -2.24294
   C      -11.27644         4.58678        -2.20475
   N      -11.70717         5.15079        -1.02729
   C      -12.55760         6.19096        -0.90913
   S      -13.33220         6.88555        -2.29533
   C      -14.16886         7.99622        -1.25147
   N      -14.92430         8.97126        -1.88167
   O      -15.49339         9.80407        -1.19730
   O      -14.92867         8.94266        -3.10874
   C      -13.87681         7.81554         0.08075
   C      -12.93603         6.80301         0.29365
   C      -12.35830         6.46641         1.59762
   C      -11.04139         6.39899         1.83378
   C      -10.05346         6.70209         0.81247
   C      -10.09460         7.79257         0.02283
   C       -9.51883         7.77458        -1.35722
   O       -8.65312         7.04445        -1.77402
   C      -10.35677         8.73275        -2.10566
   C      -10.44833         8.92082        -3.45664
   C      -11.40323         9.83067        -3.96230
   C      -12.23398        10.55810        -3.05879
   C      -13.20198        11.44551        -3.56957
   C      -13.34168        11.60330        -4.91961
   C      -12.51771        10.88739        -5.81319
   C      -11.56776        10.02233        -5.34764
   F      -12.67094        11.06553        -7.13040
   F      -14.25205        12.44664        -5.41135
   C      -12.10485        10.36162        -1.66639
   C      -11.19425         9.44946        -1.20090
   C      -10.93430         8.97621         0.14699
   C      -11.26434         9.59499         1.31686
   C      -10.85036         9.11381         2.57732
   N      -10.50645         8.76975         3.61620
   C      -11.99548        10.80041         1.38898
   N      -12.58753        11.77650         1.49599
   H      -14.38290        -1.84752        -9.06499
   H      -10.19027         0.77765        -8.75457
   H      -13.49684        -3.49462        -7.49999
   H       -9.26888        -0.87696        -7.13501
   H      -10.03820        -6.23668        -3.88181
   H       -7.89268        -4.20912        -4.04839
   H       -4.98271        -6.56045        -0.93724
   H       -4.73146        -4.21175        -2.13501
   H       -7.52819        -3.00221        -2.47287
   H       -4.71925        -1.72665        -2.46059
   H       -7.91450        -0.47715        -5.23661
   H       -6.71599         0.81610        -5.33735
   H       -8.57005         0.75252        -1.64728
   H       -7.31543         1.95617        -1.96908
   H      -11.07256         3.78825        -5.08649
   H       -9.00096         2.77806        -6.40387
   H      -10.22941         1.53578        -6.18418
   H       -9.98162         3.20494        -1.31369
   H      -11.70096         5.01809        -3.09777
   H      -11.34793         4.75519        -0.16676
   H      -14.30722         8.42547         0.85495
   H      -13.06068         6.27894         2.39754
   H      -10.67555         6.07849         2.79911
   H       -9.29000         5.96045         0.60157
   H       -9.81404         8.36712        -4.13214
   H      -13.84720        11.98914        -2.89692
   H      -10.95028         9.48110        -6.04728
   H      -12.75437        10.90670        -0.99851
*
