# ORCA input file
# SCF done       -185.934242575284          0.000691851911
! CAM-B3LYP def2-SVP def2/J RIJCOSX Grid4 TightSCF
%maxcore 5000
%tddft
    Mode sTDDFT
    Ethresh 5.0
    maxcore 5000
end

%pal
  nprocs 6
  end
* xyz 0 1
   C       10.49350         0.92924        -4.48083
   C        9.44069         0.13728        -4.23637
   C        8.04873         0.47739        -4.32254
   C        7.20918        -0.53220        -4.00597
   C        7.86082        -1.74699        -3.64713
   S        9.59669        -1.55458        -3.73373
   C        7.27081        -2.92959        -3.26564
   C        5.88813        -3.20116        -3.12879
   C        5.62956        -4.46066        -2.69700
   C        6.78415        -5.26415        -2.46334
   S        8.22210        -4.35019        -2.85996
   C        6.68667        -6.53407        -1.94827
   C        7.67504        -7.47158        -1.57772
   C        7.36034        -8.67274        -0.88724
   N        8.29194        -9.50511        -0.36682
   C        9.56601        -9.32435        -0.52061
   C       10.03447        -8.22774        -1.27524
   C        9.07031        -7.28724        -1.79641
   N        9.74937        -6.37245        -2.45373
   O       11.03792        -6.70663        -2.35475
   N       11.23100        -7.82093        -1.64742
   C        6.00294        -9.11469        -0.66469
   C        5.70210       -10.02650         0.27799
   C        4.37622       -10.50184         0.58742
   C        3.26316        -9.73677         0.38232
   S        1.80986       -10.39404         1.01959
   C        2.68840       -11.77632         1.60005
   C        4.05247       -11.73372         1.27224
   C        4.87815       -12.82408         1.62870
   C        6.28328       -12.91323         1.10683
   C        4.37702       -13.84342         2.42787
   C        5.30482       -14.88665         2.97892
   C        3.00331       -13.87976         2.75507
   C        2.16902       -12.83694         2.32308
   S        0.52377       -13.02332         2.85141
   C        0.94757       -14.47599         3.66401
   C        2.25519       -14.84199         3.52896
   C        2.74880       -16.08374         4.08215
   C        2.38915       -16.53973         5.29728
   C        2.87254       -17.75391         5.86080
   O        2.53951       -18.06323         7.13238
   C        3.13892       -19.23859         7.47842
   C        3.88009       -19.68888         6.38189
   C        3.71151       -18.74303         5.35478
   O        4.26761       -18.78859         4.12253
   O        4.66066       -20.78766         6.23308
   C        2.94202       -19.69331         8.79733
   C        3.37213       -20.86199         9.35774
   C        3.19081       -21.21581        10.71396
   C        2.62786       -20.43350        11.68490
   C        2.52064       -20.86551        13.01592
   C        1.97360       -20.12460        14.03591
   C        1.85546       -20.51487        15.42322
   C        2.31119       -21.67423        16.00264
   C        2.16961       -21.98475        17.37024
   N        2.08428       -22.30138        18.47097
   C        2.99193       -22.71423        15.33843
   N        3.55555       -23.60442        14.87983
   C        1.17127       -19.43640        16.13260
   C        0.89319       -18.39451        15.21558
   C        1.38721       -18.77655        13.87664
   O        1.30911       -18.10144        12.86903
   C        0.25530       -17.23455        15.57991
   C       -0.13090       -17.09472        16.91711
   C        0.14798       -18.14146        17.82653
   C        0.79520       -19.31456        17.45716
   S       -0.41816       -17.76533        19.42648
   C       -1.01176       -16.22735        18.85823
   C       -0.79921       -16.00491        17.53983
  Br       -1.85871       -15.06117        20.05907
   H       10.35351         1.95202        -4.78366
   H       11.50273         0.57292        -4.38551
   H        7.74223         1.46556        -4.61658
   H        6.13645        -0.45481        -4.01478
   H        5.13179        -2.46736        -3.34271
   H        4.64065        -4.84886        -2.52393
   H        5.66760        -6.83635        -1.74744
   H       10.23979       -10.03427        -0.06515
   H        5.22821        -8.72325        -1.30623
   H        6.51166       -10.38596         0.89215
   H        3.22423        -8.76365        -0.06626
   H        6.36758       -12.39253         0.15749
   H        6.55744       -13.95247         0.94342
   H        7.00017       -12.47849         1.80385
   H        5.35328       -15.76025         2.32851
   H        4.96166       -15.20758         3.95893
   H        6.30876       -14.48677         3.08948
   H        0.17780       -15.03094         4.16387
   H        3.41507       -16.67525         3.47445
   H        1.74090       -15.96172         5.94027
   H        4.78964       -19.60013         4.06407
   H        4.73192       -21.26116         7.06861
   H        2.37625       -19.00054         9.40401
   H        3.88185       -21.59824         8.74950
   H        3.55245       -22.19501        11.00552
   H        2.25840       -19.44801        11.45135
   H        2.90346       -21.85272        13.24100
   H        0.06004       -16.45904        14.85587
   H        0.98259       -20.08177        18.18940
   H       -1.10069       -15.11067        17.02551
*
