# ORCA input file
# SCF done       -262.226555303783          0.000754377952
! CAM-B3LYP def2-SVP def2/J RIJCOSX Grid4 TightSCF
%maxcore 5000
%tddft
    Mode sTDDFT
    Ethresh 5.0
    maxcore 5000
end

%pal
  nprocs 6
  end
* xyz 0 1
   C       -7.90873        -1.79553        -3.37784
   C       -6.84055        -0.80582        -3.10250
   O       -5.83316        -0.93482        -2.44174
   C       -7.22089         0.40342        -3.86693
   C       -8.45389         0.19651        -4.50718
   C       -8.93311        -1.14093        -4.17578
   C      -10.16625        -1.64395        -4.49654
   C      -11.12522        -0.94947        -5.26417
   N      -11.94539        -0.44301        -5.88751
   C      -10.67674        -2.89217        -4.07913
   N      -11.18188        -3.87394        -3.76410
   C       -8.99260         1.20627        -5.29229
   C       -8.29632         2.39825        -5.41854
   C       -7.07979         2.58687        -4.77128
   C       -6.52122         1.58649        -3.98456
  Cl       -6.25141         4.08668        -4.95182
   C       -7.88271        -3.13825        -3.12026
   C       -6.98606        -3.88916        -2.32888
   C       -6.12779        -3.51637        -1.32062
   C       -5.40592        -4.58786        -0.76341
   C       -5.75845        -5.83728        -1.34792
   S       -6.96494        -5.63286        -2.58566
   C       -5.16647        -7.03591        -0.98921
   C       -5.51113        -8.30358        -1.64314
   C       -4.51731        -9.13557        -2.15179
   C       -4.84838       -10.32594        -2.77051
   C       -6.17356       -10.72086        -2.89820
   C       -7.16412        -9.88548        -2.39221
   C       -6.84221        -8.69344        -1.77643
   C       -6.54278       -12.01004        -3.56445
   C       -4.19804        -6.97239         0.03400
   C       -3.86412        -5.73100         0.63971
   C       -4.43149        -4.52825         0.25688
   C       -4.01661        -3.25413         0.85284
   C       -3.66666        -2.17108         0.04990
   C       -3.25131        -0.98325         0.62048
   C       -3.17536        -0.83896         1.99943
   C       -3.52769        -1.92227         2.79818
   C       -3.93880        -3.11363         2.23752
   C       -2.71882         0.44214         2.62577
   S       -2.63161        -5.93014         1.86377
   C       -2.56565        -7.64703         1.55554
   C       -3.45987        -8.03676         0.58563
   C       -1.64789        -8.48857         2.25269
   C       -0.83766        -7.99477         3.29526
   C        0.10934        -8.81593         3.99219
   N        0.83472        -8.28013         4.99550
   C        0.67561        -7.03602         5.30678
   C       -0.25006        -6.21845         4.60551
   N       -0.96875        -6.69833         3.64481
   F       -0.40688        -4.93634         4.92316
   F        1.40079        -6.54340         6.30695
   C        0.32428       -10.17005         3.66453
   C       -0.49102       -10.67827         2.62689
   C       -1.46361        -9.85494         1.93867
   N       -2.11272       -10.54743         1.00059
   S       -1.57579       -12.05784         0.98558
   N       -0.49034       -11.92764         2.15788
   C        1.30589       -10.95600         4.33862
   C        1.67621       -12.24324         4.02569
   C        2.66877       -12.77087         4.87309
   C        3.06933       -11.82970         5.86012
   S        2.19675       -10.32380         5.70124
   C        4.07407       -12.08491         6.77484
   C        4.53450       -11.08060         7.73932
   C        3.63607       -10.40000         8.55697
   C        4.08961        -9.46050         9.46088
   C        5.44480        -9.16671         9.57208
   C        6.33761        -9.83636         8.74439
   C        5.89130       -10.78012         7.83988
   C        5.92088        -8.13402        10.54548
   C        4.67575       -13.35939         6.71014
   C        4.28237       -14.29486         5.71502
   C        3.28729       -14.03554         4.78856
   C        2.89310       -15.01481         3.76996
   C        1.55523       -15.35171         3.58272
   C        1.19329       -16.27279         2.61844
   C        2.14972       -16.87896         1.81428
   C        3.48566       -16.54276         2.00717
   C        3.85635       -15.62826         2.97162
   C        1.76541       -17.86591         0.75575
   S        5.16610       -15.78788         5.87155
   C        6.05920       -15.15973         7.24403
   C        5.66592       -13.88073         7.56196
   C        6.98806       -15.99709         7.90638
   C        7.97086       -15.65676         8.78587
   C        8.52767       -16.69949         9.68980
   O        8.39517       -17.89601         9.58988
   C        9.22458       -15.94692        10.75840
   C        9.20346       -14.57292        10.45519
   C        8.56313       -14.38834         9.15578
   C        8.72528       -13.29678         8.34316
   C        9.33179       -12.09182         8.74808
   N        9.77766       -11.07365         9.03583
   C        8.36025       -13.28652         6.98110
   N        8.12902       -13.24802         5.85760
   C        9.77583       -13.66646        11.33484
   C       10.36279       -14.14397        12.49637
   C       10.38740       -15.50660        12.77478
   C        9.81540       -16.43070        11.90714
  Cl       11.13915       -16.05726        14.22322
   H       -9.93064         1.08237        -5.80801
   H       -8.70006         3.19212        -6.02705
   H       -5.57747         1.72076        -3.48018
   H       -8.62664        -3.74490        -3.62445
   H       -6.03688        -2.50429        -0.97589
   H       -3.48254        -8.83344        -2.08510
   H       -4.06303       -10.95568        -3.16405
   H       -8.20071       -10.17631        -2.48247
   H       -7.62563        -8.06867        -1.37389
   H       -7.08326       -12.65354        -2.87111
   H       -5.65880       -12.53831        -3.91234
   H       -7.19443       -11.82186        -4.41670
   H       -3.69762        -2.26435        -1.02497
   H       -2.98102        -0.15675        -0.02049
   H       -3.47672        -1.82826         3.87327
   H       -4.22592        -3.93597         2.87539
   H       -2.54342         1.20527         1.87190
   H       -1.79410         0.28081         3.17904
   H       -3.46504         0.80954         3.32894
   H       -3.57644        -9.06357         0.29413
   H        1.25318       -12.77370         3.19347
   H        2.58214       -10.62653         8.49580
   H        3.38162        -8.94471        10.09344
   H        7.39440        -9.61797         8.80537
   H        6.59293       -11.26574         7.17699
   H        5.42953        -8.25609        11.50905
   H        5.68210        -7.13715        10.17458
   H        6.99694        -8.19832        10.68486
   H        0.79965       -14.90781         4.21409
   H        0.15037       -16.52639         2.49141
   H        4.24319       -17.00398         1.39009
   H        4.89662       -15.36558         3.09289
   H        1.95909       -17.45038        -0.23316
   H        0.71075       -18.12048         0.82204
   H        2.35340       -18.77704         0.85236
   H        6.02836       -13.35020         8.42460
   H        6.86047       -17.06415         7.75231
   H        9.76250       -12.60633        11.13894
   H       10.80882       -13.45373        13.19506
   H        9.83022       -17.48858        12.11622
*
