# ORCA input file
# SCF done       -190.637132320864          0.000682836545
! CAM-B3LYP def2-SVP def2/J RIJCOSX Grid4 TightSCF
%maxcore 5000
%tddft
    Mode sTDDFT
    Ethresh 5.0
    maxcore 5000
end

%pal
  nprocs 6
  end
* xyz 0 1
   C       -6.68090        -0.41747        -1.22045
   C       -6.80341        -0.93515        -2.58862
   O       -6.78941        -2.10038        -2.94257
   C       -6.95360         0.24315        -3.46098
   C       -6.90767         1.41065        -2.67796
   C       -6.72083         1.03568        -1.27826
   C       -6.59167         1.91323        -0.23548
   C       -6.63731         3.31788        -0.37488
   N       -6.66620         4.46412        -0.41686
   C       -6.38431         1.56549         1.11711
   N       -6.21079         1.36841         2.23490
   C       -7.03636         2.64664        -3.29612
   C       -7.20604         2.69330        -4.67123
   C       -7.24674         1.52694        -5.42869
   C       -7.12026         0.27843        -4.82988
  Cl       -7.45810         1.63275        -7.13336
   C       -6.58185        -1.17971        -0.08669
   C       -6.54645        -2.57608         0.07087
   C       -6.47964        -3.16894         1.33832
   C       -6.45878        -4.54900         1.27581
   C       -6.50123        -5.02356        -0.05664
   S       -6.57781        -3.77930        -1.21593
   C       -6.48050        -6.43960        -0.02003
   C       -6.42760        -6.86006         1.32728
   C       -6.41016        -5.68629         2.18402
   C       -6.36294        -5.65572         3.54588
   C       -6.31839        -6.83094         4.32713
   N       -6.28268        -7.77845         4.97096
   C       -6.35672        -4.44411         4.27051
   N       -6.35702        -3.46373         4.86431
   C       -6.41425        -8.24607         1.45814
   C       -6.45390        -8.86505         0.22027
   S       -6.50652        -7.74201        -1.11997
   C       -6.46383       -10.25787        -0.06495
   N       -6.48489       -10.63244        -1.33312
   N       -6.50291       -11.87485        -1.71564
   C       -6.51190       -12.89762        -0.87736
   C       -6.49376       -12.63728         0.52747
   C       -6.46260       -11.26331         0.95031
   N       -6.44755       -11.25926         2.26657
   O       -6.46779       -12.53474         2.63731
   N       -6.49601       -13.38109         1.61353
   C       -6.54092       -14.21001        -1.42289
   C       -6.58373       -15.41629        -0.74509
   C       -6.61113       -16.49012        -1.63032
   C       -6.58269       -16.08340        -2.98260
   S       -6.52878       -14.38936        -3.16308
   C       -6.60513       -17.24192        -3.79984
   C       -6.65549       -18.37588        -2.96466
   C       -6.65005       -17.94167        -1.57731
   C       -6.64645       -18.74494        -0.47556
   C       -6.65493       -20.15108        -0.59781
   N       -6.66308       -21.29128        -0.71847
   C       -6.63371       -18.23320         0.83980
   N       -6.63282       -17.82569         1.91088
   C       -6.65549       -19.56996        -3.67242
   C       -6.59386       -19.36573        -5.04363
   S       -6.57620       -17.65535        -5.44994
   C       -6.59137       -20.32876        -6.07891
   C       -6.29352       -21.65387        -6.00293
   C       -6.76340       -22.55796        -7.09389
   O       -7.18251       -22.22380        -8.17545
   C       -6.65542       -23.92135        -6.53284
   C       -6.03662       -23.86125        -5.27001
   C       -5.65960       -22.47824        -4.99162
   C       -4.68496       -22.09469        -4.10942
   C       -4.00941       -22.98652        -3.24811
   N       -3.42644       -23.66670        -2.53186
   C       -4.17261       -20.78506        -4.02111
   N       -3.70664       -19.73939        -3.93524
   C       -5.86760       -25.02268        -4.53095
   C       -6.30499       -26.22308        -5.06815
   C       -6.89666       -26.26942        -6.32707
   C       -7.08418       -25.11403        -7.07835
  Cl       -7.41134       -27.78422        -6.96134
   H       -7.00992         3.56610        -2.73514
   H       -7.30863         3.64702        -5.16455
   H       -7.15068        -0.63303        -5.40553
   H       -6.53146        -0.65066         0.85738
   H       -6.45136        -2.58646         2.24233
   H       -6.37960        -8.79788         2.38059
   H       -6.59408       -15.47770         0.32861
   H       -6.73964       -20.54495        -3.22861
   H       -6.93272       -19.99066        -7.05260
   H       -5.42106       -25.00594        -3.54995
   H       -6.18698       -27.13610        -4.50608
   H       -7.54701       -25.14085        -8.05203
*
