# ORCA input file
# SCF done       -194.560842048926          0.000944923615
! CAM-B3LYP def2-SVP def2/J RIJCOSX Grid4 TightSCF
%maxcore 5000
%tddft
    Mode sTDDFT
    Ethresh 5.0
    maxcore 5000
end

%pal
  nprocs 6
  end
* xyz 0 1
   C        8.10313         2.13734        -5.76991
   C        8.12446         3.44686        -6.17449
   C        8.07704         4.49954        -5.23502
   N        8.04872         5.35889        -4.47648
   C        8.20336         3.88228        -7.50936
   N        8.26613         4.30117        -8.57681
   C        8.16535         0.93904        -6.56767
   C        8.14346        -0.23541        -5.78732
   C        8.19770        -1.47914        -6.41149
   C        8.27386        -1.54510        -7.78831
   C        8.29690        -0.38547        -8.55578
   C        8.24344         0.85725        -7.95629
   C        8.06142         0.01392        -4.36830
   S        7.99551         1.74586        -4.06925
   C        8.06280        -0.93990        -3.39718
   C        7.98051        -0.77583        -1.99789
   C        7.76944         0.35662        -1.22008
   C        7.76458         0.06496         0.13808
   C        7.98033        -1.30297         0.41629
   S        8.16928        -2.22348        -1.00564
   C        7.98439        -1.49295         1.81360
   C        7.76430        -0.24004         2.43006
   C        7.61061         0.77366         1.39944
   C        7.36682         2.10321         1.57648
   C        7.24140         2.67967         2.85866
   N        7.13922         3.15404         3.89727
   C        7.21530         2.98631         0.48542
   N        7.07983         3.70162        -0.39986
   C        7.76515        -0.31461         3.81365
   C        7.99037        -1.61174         4.26528
   S        8.19260        -2.75775         2.94821
   C        8.09287        -2.03712         5.61172
   C        8.37197        -3.38621         5.92807
   C        8.55287        -3.83817         7.28338
   N        8.83262        -5.12353         7.51806
   C        8.93579        -5.96718         6.51730
   C        8.75241        -5.51886         5.17103
   N        8.48197        -4.25844         4.92175
   C        8.85987        -6.42777         4.09026
   N        8.95125        -7.18405         3.23496
   C        9.23047        -7.32546         6.78927
   N        9.46614        -8.42931         6.98327
   C        8.45699        -2.96546         8.39122
   C        8.13179        -1.62211         8.08194
   C        7.95594        -1.16714         6.72100
   N        7.66736         0.13300         6.67577
   S        7.61761         0.72502         8.16524
   N        7.96227        -0.62838         8.95339
   C        8.70781        -3.42822         9.70548
   C        8.66265        -2.68041        10.87856
   C        9.02039        -3.43172        11.98656
   C        9.34004        -4.76964        11.66101
   S        9.18289        -5.09657         9.98828
   C        9.72431        -5.43150        12.84541
   C        9.65597        -4.52216        13.92396
   C        9.18655        -3.24109        13.41832
   C        8.93573        -2.11021        14.13726
   C        8.47652        -0.92123        13.53107
   N        8.10499         0.04779        13.04419
   C        9.09784        -2.06485        15.53901
   N        9.21626        -2.03851        16.67874
   C       10.06581        -5.07214        15.13214
   C       10.44458        -6.40269        14.99957
   S       10.26763        -6.97013        13.33766
   C       10.93863        -7.32570        15.94646
   C       11.32719        -7.09775        17.23069
   C       11.83568        -8.09377        18.14267
   C       12.23032        -7.56896        19.39069
   C       12.03652        -6.14394        19.48034
   C       12.32869        -5.29509        20.51628
   C       12.88540        -5.68078        21.74871
   N       13.33893        -5.93250        22.77336
   C       12.09355        -3.90752        20.40601
   N       11.91579        -2.77812        20.31781
   S       11.33760        -5.51832        18.00477
   C       12.74806        -8.41024        20.37316
   C       12.86597        -9.76056        20.10968
   C       12.47451       -10.28071        18.88065
   C       11.96130        -9.45877        17.89735
   H        8.17885        -2.38642        -5.82856
   H        8.31534        -2.50809        -8.27392
   H        8.35625        -0.45475        -9.63069
   H        8.26058         1.75123        -8.55731
   H        8.15363        -1.96638        -3.72743
   H        7.61711         1.33857        -1.62717
   H        7.62009         0.50515         4.49294
   H        8.38714        -1.64184        10.87869
   H       10.07785        -4.54016        16.06495
   H       11.04348        -8.33864        15.58056
   H       13.05206        -8.01474        21.32809
   H       13.26529       -10.41677        20.86710
   H       12.57237       -11.33901        18.69276
   H       11.65949        -9.87531        16.94933
*
