# ORCA input file
# SCF done       -208.815870425019          0.000848120889
! CAM-B3LYP def2-SVP def2/J RIJCOSX Grid4 TightSCF
%maxcore 5000
%tddft
    Mode sTDDFT
    Ethresh 5.0
    maxcore 5000
end

%pal
  nprocs 6
  end
* xyz 0 1
   C       -4.10692        -4.89668         5.61839
   C       -4.08006        -4.85672         7.01083
   C       -5.12757        -4.11589         7.79432
   O       -4.88240        -3.60458         8.84887
   O       -6.34747        -4.04913         7.25179
   C       -3.02623        -5.45524         7.72147
   C       -2.98689        -5.45303         9.13974
   N       -2.87604        -5.54481        10.27565
   C       -1.98631        -6.09672         7.04139
   C       -2.02780        -6.12332         5.66463
   C       -3.08415        -5.54147         4.94103
   C       -2.84665        -5.74491         3.51132
   C       -3.74771        -5.46696         2.51745
   C       -5.03517        -4.94596         2.76569
   N       -6.09621        -4.54426         2.93917
   C       -3.55227        -5.71482         1.14140
   N       -3.46756        -5.89649         0.01143
   C       -1.54725        -6.37361         3.37626
   C       -1.04326        -6.68716         4.71649
   O       -0.01906        -7.27707         5.00630
   C       -0.87085        -6.57936         2.19919
   C        0.36749        -7.18977         1.96068
   C        0.92342        -7.24599         0.67462
   C        2.13027        -7.91357         0.64985
   C        2.50556        -8.39354         1.93017
   S        1.39177        -7.99301         3.15277
   C        3.73708        -9.07773         1.79403
   C        4.14247        -9.03121         0.44404
   C        3.14845        -8.29285        -0.31789
   C        3.16845        -8.01321        -1.65140
   C        4.21693        -8.43807        -2.49627
   N        5.06361        -8.77930        -3.18916
   C        2.14278        -7.27103        -2.27669
   N        1.31534        -6.66921        -2.79299
   C        5.34192        -9.69679         0.21454
   C        5.84550       -10.25371         1.38057
   S        4.83560        -9.94499         2.77394
   C        7.03379       -11.01865         1.47011
   N        7.80369       -11.24179         0.44298
   C        8.83326       -12.00959         0.78247
   C        8.89677       -12.42282         2.12915
   S        7.56328       -11.77633         2.99515
   N        9.91675       -13.20878         2.46181
   C       10.67718       -13.44046         1.43045
   S       10.15901       -12.66080        -0.08873
   C       11.82501       -14.26843         1.47203
   C       12.29215       -14.96927         2.57338
   C       13.42519       -15.71509         2.26092
   C       13.82128       -15.57097         0.91574
   S       12.79909       -14.52146         0.04149
   C       14.96864       -16.36873         0.69049
   C       15.29413       -17.02864         1.89490
   C       14.34798       -16.62542         2.92244
   C       14.36268       -17.00060         4.23268
   C       15.35618       -17.87351         4.72749
   N       16.17294       -18.58458         5.10331
   C       13.40483       -16.54481         5.16383
   N       12.62279       -16.18275         5.91911
   C       16.41633       -17.83585         1.78239
   C       16.96765       -17.79475         0.50688
   S       16.03878       -16.75583        -0.57145
   C       18.08100       -18.48287        -0.01285
   C       19.08086       -19.14502         0.63823
   C       19.89112       -20.12448        -0.13656
   O       19.91331       -20.26174        -1.33580
   C       20.61314       -20.91943         0.88343
   C       20.35624       -20.38600         2.16056
   C       20.86294       -21.01363         3.28414
   C       21.66238       -22.14762         3.13457
   C       21.94233       -22.64776         1.85094
   C       21.40039       -22.03520         0.71345
   C       22.75149       -23.78839         1.63279
   N       23.41726       -24.69489         1.40621
   C       22.11863       -22.79395         4.41878
   O       21.49003       -22.64592         5.42804
   O       23.24178       -23.51245         4.40537
   C       19.53785       -19.18026         2.01140
   C       19.48256       -18.16755         2.93104
   C       18.89453       -16.91270         2.67571
   N       18.44151       -15.87437         2.49163
   C       20.11159       -18.21631         4.19556
   N       20.62307       -18.19159         5.22103
   H       -4.89154        -4.39181         5.07562
   H       -6.43984        -4.51221         6.40766
   H       -1.16959        -6.55226         7.58039
   H       -1.33842        -6.20472         1.29616
   H        0.43596        -6.80968        -0.17930
   H        5.84605        -9.79799        -0.72854
   H       11.80595       -14.92006         3.53009
   H       16.79457       -18.46774         2.56471
   H       18.12576       -18.56166        -1.09545
   H       20.64872       -20.67323         4.28552
   H       21.59422       -22.43221        -0.27157
   H       23.66036       -23.62187         3.53893
*
