# ORCA input file
# SCF done       -187.766074811524          0.000603159850
! CAM-B3LYP def2-SVP def2/J RIJCOSX Grid4 TightSCF
%maxcore 5000
%tddft
    Mode sTDDFT
    Ethresh 5.0
    maxcore 5000
end

%pal
  nprocs 6
  end
* xyz 0 1
   C       -0.57012         1.04101        -0.72992
   N        0.18453         0.32377        -1.56285
   C        0.09261        -0.97845        -1.42880
   C       -0.76009        -1.54399        -0.45844
   N       -1.47690        -0.73507         0.32989
   N       -1.37549         0.55071         0.18876
   C       -0.90344        -2.96147        -0.27063
   C       -1.68271        -3.58099         0.66071
   C       -1.62172        -4.99500         0.59686
   C       -0.73334        -5.43911        -0.41606
   S       -0.03131        -4.09772        -1.28110
   C       -0.50419        -6.77721        -0.69374
   C        0.39068        -7.20937        -1.77586
   C        1.69378        -6.72411        -1.84953
   C        2.53822        -7.13777        -2.85987
   C        2.10854        -8.03974        -3.82718
   C        0.80567        -8.51477        -3.75534
   C       -0.04466        -8.10889        -2.74429
   C        3.04244        -8.48759        -4.90926
   C       -1.17592        -7.70677         0.11632
   C       -2.03338        -7.26458         1.15583
   C       -2.29884        -5.92702         1.40280
   C       -3.26510        -5.50078         2.42327
   C       -3.18250        -5.97245         3.72908
   C       -4.10939        -5.57913         4.67598
   C       -5.14509        -4.71541         4.34627
   C       -5.22770        -4.25016         3.03789
   C       -4.30210        -4.63233         2.08866
   C       -6.15164        -4.28023         5.36612
   S       -2.73021        -8.61434         2.01532
   C       -1.88578        -9.74790         0.97790
   C       -1.11404        -9.12052         0.04668
   C       -2.05366       -11.16426         1.15148
   C       -2.50648       -11.73575         2.33296
   N       -2.67273       -13.03358         2.55086
   C       -2.45320       -13.92118         1.60009
   C       -1.99871       -13.48590         0.32298
   C       -1.77285       -12.08256         0.10837
   N       -1.32928       -11.83432        -1.12383
   S       -1.20711       -13.22429        -1.92148
   N       -1.70784       -14.21026        -0.75483
   C       -2.66839       -15.30618         1.90043
   C       -2.80029       -16.34320         1.02232
   C       -3.01012       -17.58985         1.65766
   C       -3.02298       -17.46417         3.07273
   S       -2.80118       -15.80476         3.56841
   C       -3.23069       -18.53969         3.92214
   C       -3.22691       -18.39093         5.38303
   C       -4.28001       -18.88059         6.15209
   C       -4.26607       -18.74314         7.52540
   C       -3.20288       -18.12180         8.17195
   C       -2.15754       -17.63047         7.40136
   C       -2.16804       -17.75708         6.02550
   C       -3.18816       -18.00597         9.66505
   C       -3.44250       -19.79057         3.31480
   C       -3.45948       -19.90952         1.89897
   C       -3.23591       -18.83695         1.04954
   C       -3.23556       -18.98448        -0.41163
   C       -4.30144       -19.60198        -1.06089
   C       -4.30757       -19.72410        -2.43582
   C       -3.25173       -19.24293        -3.20201
   C       -2.18417       -18.63930        -2.55017
   C       -2.17335       -18.50801        -1.17471
   C       -3.26691       -19.39262        -4.69243
   S       -3.72346       -21.55934         1.39573
   C       -3.77975       -22.07096         3.06235
   C       -3.61675       -21.04551         3.94691
   C       -3.98285       -23.45969         3.36426
   N       -4.12061       -24.30494         2.32918
   C       -4.29909       -25.56838         2.63897
   C       -4.33420       -25.96623         3.97785
   N       -4.19926       -25.07285         4.94396
   N       -4.02610       -23.82467         4.64788
   H       -0.51962         2.11687        -0.81754
   H        0.69375        -1.59375        -2.08668
   H       -2.26804        -3.02828         1.37239
   H        2.05100        -6.03620        -1.09724
   H        3.54940        -6.75851        -2.89933
   H        0.44933        -9.21182        -4.50050
   H       -1.05980        -8.47646        -2.71362
   H        3.50835        -7.62967        -5.39115
   H        2.51774        -9.07057        -5.66188
   H        3.83727        -9.10337        -4.48811
   H       -2.37610        -6.63421         4.00870
   H       -4.02512        -5.95058         5.68724
   H       -6.03074        -3.58181         2.76169
   H       -4.39419        -4.27887         1.07184
   H       -6.03507        -4.83683         6.29243
   H       -7.16323        -4.42910         4.99182
   H       -6.03121        -3.21892         5.58315
   H       -0.50986        -9.65799        -0.66012
   H       -2.74493       -11.10092         3.17649
   H       -2.76969       -16.20770        -0.04287
   H       -5.12205       -19.35020         5.66479
   H       -5.09217       -19.12444         8.10854
   H       -1.32228       -17.14301         7.88349
   H       -1.33958       -17.38079         5.44430
   H       -2.98707       -18.97950        10.11288
   H       -4.15339       -17.66397        10.03381
   H       -2.41908       -17.31221         9.99502
   H       -5.13841       -19.96642        -0.48424
   H       -5.14643       -20.19743        -2.92576
   H       -1.34927       -18.26590        -3.12623
   H       -1.32689       -18.05091        -0.68360
   H       -4.24371       -19.13084        -5.09501
   H       -3.06101       -20.42763        -4.96627
   H       -2.51373       -18.76038        -5.15612
   H       -3.60787       -21.20009         5.01009
   H       -4.41568       -26.26315         1.81732
   H       -4.47267       -26.99089         4.28588
*
