# ORCA input file
# SCF done       -280.038256218523          0.000529593384
! CAM-B3LYP def2-SVP def2/J RIJCOSX Grid4 TightSCF
%maxcore 5000
%tddft
    Mode sTDDFT
    Ethresh 5.0
    maxcore 5000
end

%pal
  nprocs 6
  end
* xyz 0 1
   C      -18.38393       -23.52144        -4.88959
   C      -18.51054       -24.80004        -4.42383
   F      -19.53509       -25.56442        -4.82442
   C      -17.56929       -25.33058        -3.51890
   F      -17.71907       -26.58713        -3.07798
   C      -16.51327       -24.57482        -3.09279
   C      -16.35522       -23.25394        -3.55504
   C      -17.30662       -22.71559        -4.46917
   C      -17.17031       -21.39129        -4.94523
   C      -16.11453       -20.62766        -4.52072
   C      -15.17034       -21.17537        -3.60877
   C      -15.27423       -22.44963        -3.13132
   C      -14.14197       -20.16268        -3.30688
   O      -13.18327       -20.31204        -2.57519
   C      -14.52120       -18.95913        -4.06651
   C      -15.72170       -19.25405        -4.82855
   C      -16.38258       -18.42421        -5.69742
   C      -16.02045       -17.09987        -6.02169
   N      -15.80111       -16.01990        -6.34681
   C      -17.54174       -18.79298        -6.41287
   N      -18.48406       -19.02685        -7.02550
   C      -13.86889       -17.75608        -4.04633
   C      -12.70977       -17.35116        -3.35648
   C      -12.22478       -16.05717        -3.46315
   C      -11.06456       -15.81370        -2.71946
   C      -10.34578       -14.59402        -2.59765
   C      -10.79042       -13.36305        -3.21220
   C      -10.02513       -12.38114        -3.78103
   C      -10.77591       -11.28696        -4.24965
   C      -12.11413       -11.41073        -4.03056
   S      -12.47570       -12.90971        -3.24277
   C      -13.20308       -10.46392        -4.38220
   C       -9.19124       -14.64625        -1.83471
   C       -8.73928       -15.82267        -1.17219
   C       -9.48348       -17.02342        -1.25097
   C      -10.62556       -16.98845        -2.05056
   S      -11.70136       -18.32961        -2.31565
   C       -9.09854       -18.21062        -0.52825
   C       -9.23127       -19.52168        -0.91172
   C       -8.75881       -20.43169         0.04761
   C       -8.28433       -19.83470         1.17967
   S       -8.40235       -18.11796         1.07131
   C       -7.68048       -20.45929         2.38100
   C       -7.52878       -15.61081        -0.49013
   C       -7.07453       -14.31525        -0.55915
   S       -8.12854       -13.29561        -1.51722
   C       -5.90266       -13.82986         0.05310
   C       -4.98839       -14.57023         0.81814
   C       -3.90068       -13.76497         1.30300
   N       -2.92991       -14.27769         2.05845
   C       -3.00792       -15.55829         2.34445
   C       -1.93644       -16.12574         3.19806
   O       -1.03331       -15.45522         3.65467
   C       -2.05468       -17.56941         3.46121
   C       -3.05940       -18.32551         3.00487
   C       -4.16467       -17.80868         2.18330
   O       -5.07011       -18.52598         1.79920
   C       -4.08749       -16.36691         1.86030
   N       -5.05227       -15.87020         1.11269
   C       -3.98468       -12.42315         0.92441
   S       -5.40540       -12.16680        -0.03499
   C       -3.06172       -11.42521         1.29624
   C       -3.12831       -10.07056         1.07543
   C       -2.03965        -9.36491         1.62225
   C       -1.81482        -7.96803         1.58611
   C       -2.82544        -7.06204         1.08846
   C       -4.17807        -7.11827         1.28849
   C       -4.87733        -6.06385         0.67137
   C       -4.07044        -5.20246        -0.00772
   S       -2.40835        -5.67761         0.11526
   C       -4.45072        -3.98916        -0.77596
   C       -0.59012        -7.53526         2.07374
   C        0.39012        -8.41604         2.60982
   C        0.11769        -9.80039         2.75504
   C       -1.10076       -10.23407         2.23932
   S       -1.63997       -11.89435         2.19455
   C        0.99346       -10.70591         3.46169
   C        0.62333       -11.77332         4.24028
   C        1.70310       -12.43628         4.84763
   C        2.91742       -11.90428         4.53681
   S        2.73460       -10.55338         3.46886
   C        4.26217       -12.28794         5.02890
   C        1.52857        -7.71728         3.03721
   C        1.44338        -6.35073         2.91147
   S       -0.07234        -5.87643         2.16896
   C        2.40766        -5.37150         3.22955
   C        3.58965        -5.50103         3.90192
   C        4.62180        -4.44549         3.70761
   O        4.45260        -3.33901         3.25081
   C        5.89501        -5.06514         4.13131
   C        7.16343        -4.57127         4.03614
   C        8.24595        -5.37129         4.46706
   C        7.98963        -6.67349         4.98595
   C        9.07468        -7.47081         5.40182
   C       10.35312        -6.99661         5.31062
   C       10.60516        -5.70763         4.80049
   C        9.57443        -4.91073         4.38732
   F       11.86914        -5.26855         4.72208
   F       11.38297        -7.75719         5.70680
   C        6.66304        -7.15279         5.08403
   C        5.63001        -6.35681         4.66823
   C        4.18294        -6.56412         4.68190
   C        3.53449        -7.46755         5.48684
   C        2.14391        -7.44367         5.71908
   N        1.02250        -7.43305         5.96225
   C        4.17905        -8.49853         6.19465
   N        4.64645        -9.39204         6.74578
   H      -19.11350       -23.13103        -5.58187
   H      -15.80121       -24.99505        -2.39989
   H      -17.90934       -21.01585        -5.63398
   H      -14.54208       -22.83687        -2.43914
   H      -14.29565       -16.96053        -4.64534
   H      -12.71047       -15.32413        -4.08167
   H       -8.95967       -12.45734        -3.90040
   H      -10.33606       -10.43390        -4.73484
   H      -12.78959        -9.59194        -4.88312
   H      -13.73401       -10.13762        -3.48800
   H      -13.92752       -10.93971        -5.04272
   H       -9.61249       -19.82423        -1.86977
   H       -8.76766       -21.49766        -0.09467
   H       -7.66734       -21.54154         2.27861
   H       -8.23604       -20.19271         3.27994
   H       -6.65935       -20.09488         2.49798
   H       -6.97079       -16.36234         0.03640
   H       -1.26401       -17.99188         4.06651
   H       -3.10942       -19.38335         3.22670
   H       -3.92645        -9.61440         0.51802
   H       -4.65088        -7.86535         1.90056
   H       -5.94486        -5.94687         0.73232
   H       -5.53091        -3.86543        -0.76584
   H       -4.11358        -4.06580        -1.80922
   H       -3.99088        -3.10150        -0.34216
   H       -0.39779       -12.05592         4.41551
   H        1.58001       -13.28394         5.49684
   H        4.21545       -13.25126         5.53034
   H        4.62115       -11.53939         5.73980
   H        4.97796       -12.34243         4.20996
   H        2.41991        -8.20245         3.38013
   H        2.23521        -4.38446         2.81101
   H        7.34007        -3.58498         3.63493
   H        8.89936        -8.45882         5.79802
   H        9.78390        -3.92660         3.99833
   H        6.49811        -8.14406         5.47507
*
