# ORCA input file
# SCF done       -240.470043772864          0.000492032646
! CAM-B3LYP def2-SVP def2/J RIJCOSX Grid4 TightSCF
%maxcore 5000
%tddft
    Mode sTDDFT
    Ethresh 5.0
    maxcore 5000
end

%pal
  nprocs 6
  end
* xyz 0 1
   C       -7.49888       -13.93026       -13.13426
   C       -8.59884       -13.66674       -13.90131
   F       -8.83718       -14.38489       -15.00660
   C       -9.49467       -12.63979       -13.54198
   F      -10.56571       -12.40369       -14.31216
   C       -9.27773       -11.89011       -12.42011
   C       -8.15304       -12.13720       -11.60918
   C       -7.24581       -13.17470       -11.97166
   C       -6.10772       -13.43787       -11.17528
   C       -5.88479       -12.68588       -10.05208
   C       -6.79924       -11.65812        -9.69372
   C       -7.90594       -11.37987       -10.44287
   C       -6.35087       -11.00500        -8.44708
   O       -6.91402       -10.08491        -7.89127
   C       -5.13878       -11.74684        -8.02476
   C       -4.81400       -12.71117        -9.06119
   C       -3.66337       -13.44886        -9.15509
   C       -2.56435       -13.35688        -8.27337
   N       -1.61611       -13.30804        -7.62818
   C       -3.40055       -14.36496       -10.19514
   N       -3.13680       -15.12905       -11.01009
   C       -4.53192       -11.70961        -6.79720
   C       -4.71482       -10.79629        -5.73993
   C       -5.21318        -9.50202        -5.72908
   C       -5.21654        -8.90733        -4.47174
   C       -5.66476        -7.53127        -4.24667
   C       -6.86796        -7.12001        -4.80718
   C       -7.30371        -5.81228        -4.61165
   C       -6.53413        -4.94001        -3.84905
   C       -5.32193        -5.34790        -3.30153
   C       -4.87684        -6.64896        -3.51384
   O       -4.65539        -4.41317        -2.57820
   C       -3.45120        -4.77883        -1.94595
   O       -8.45457        -5.30088        -5.11480
   C       -9.26496        -6.12807        -5.91789
   C       -4.73289        -9.76950        -3.47667
   S       -4.20027       -11.28267        -4.13947
   C       -4.70666        -9.60614        -2.07858
   C       -4.13150       -10.52338        -1.18790
   C       -4.28603       -10.14609         0.18444
   N       -3.74580       -10.85886         1.16890
   C       -3.08820       -11.94664         0.82997
   C       -2.45489       -12.72067         1.92519
   O       -2.57843       -12.41868         3.09544
   C       -1.67068       -13.88555         1.48708
   C       -1.59116       -14.28691         0.21387
   C       -2.27408       -13.61126        -0.90463
   O       -2.26099       -14.04886        -2.03411
   C       -2.98165       -12.35682        -0.53847
   N       -3.48853       -11.64325        -1.52085
   C       -5.00074        -8.95414         0.35401
   S       -5.45408        -8.30686        -1.18826
   C       -5.20277        -8.35113         1.60732
   C       -5.65924        -7.08721         1.93501
   C       -5.56315        -6.79942         3.29971
   C       -5.92646        -5.51371         3.88692
   C       -7.06510        -4.85351         3.43889
   C       -7.43290        -3.63487         3.99921
   C       -6.65588        -3.06602         5.00483
   C       -5.50738        -3.71985         5.44162
   C       -5.14434        -4.94298         4.88328
   O       -4.67600        -3.24666         6.40469
   C       -4.97788        -2.02158         7.02729
   O       -8.56792        -3.07877         3.49904
   C       -9.00453        -1.84188         4.00852
   C       -5.02628        -7.86562         4.02766
   S       -4.69759        -9.23712         3.01072
   C       -4.81486        -7.95343         5.42519
   C       -3.96828        -8.81166         6.05742
   C       -4.17455        -9.15530         7.49128
   O       -4.84946        -8.55356         8.29354
   C       -3.44086       -10.42476         7.68660
   C       -3.42059       -11.25136         8.77320
   C       -2.68539       -12.45658         8.70450
   C       -1.99750       -12.79283         7.50151
   C       -1.28627       -14.00788         7.43624
   C       -1.25256       -14.84649         8.51428
   C       -1.92793       -14.51076         9.70463
   C       -2.62979       -13.34200         9.79892
   F       -1.87770       -15.35213        10.74756
   F       -0.57407       -16.00112         8.44962
   C       -2.02676       -11.91437         6.39515
   C       -2.72538       -10.74243         6.49654
   C       -2.89849        -9.65110         5.54686
   C       -2.03036        -9.34858         4.53378
   C       -2.08753        -8.14676         3.79709
   N       -2.07890        -7.16276         3.20540
   C       -0.94901       -10.16553         4.14666
   N       -0.05081       -10.77694         3.77679
   H       -6.82237       -14.71890       -13.42447
   H       -9.97299       -11.10781       -12.15862
   H       -5.44373       -14.23325       -11.47247
   H       -8.58309       -10.59191       -10.14985
   H       -3.84683       -12.51707        -6.56439
   H       -5.53870        -8.99184        -6.61532
   H       -7.44470        -7.83067        -5.37561
   H       -6.87581        -3.93146        -3.68821
   H       -3.91696        -6.97871        -3.15074
   H       -3.12525        -3.89512        -1.40035
   H       -2.68188        -5.05679        -2.67299
   H       -3.60137        -5.60250        -1.24013
   H      -10.10215        -5.50509        -6.22816
   H       -9.64276        -6.98780        -5.35580
   H       -8.72733        -6.48082        -6.80306
   H       -1.16004       -14.41929         2.27691
   H       -1.01689       -15.16009        -0.06492
   H       -6.00044        -6.38432         1.19576
   H       -7.69473        -5.28036         2.67584
   H       -6.93842        -2.12143         5.43743
   H       -4.22859        -5.40789         5.20901
   H       -4.18393        -1.85889         7.75413
   H       -5.93984        -2.06074         7.54864
   H       -4.98331        -1.19485         6.30941
   H       -9.91450        -1.60394         3.46016
   H       -8.26547        -1.05231         3.83829
   H       -9.23466        -1.90426         5.07704
   H       -5.44744        -7.34149         6.06023
   H       -3.96088       -10.99409         9.67158
   H       -0.76133       -14.27561         6.53286
   H       -3.14250       -13.10123        10.71706
   H       -1.52789       -12.19324         5.48115
*
