# ORCA input file
# SCF done       -200.746857059510          0.000573966939
! CAM-B3LYP def2-SVP def2/J RIJCOSX Grid4 TightSCF
%maxcore 5000
%tddft
    Mode sTDDFT
    Ethresh 5.0
    maxcore 5000
end

%pal
  nprocs 6
  end
* xyz 0 1
   C        3.20389         4.17649        -3.83933
   C        3.66430         5.45040        -3.62790
   C        4.20203         6.26818        -4.64163
   N        4.62948         6.98080        -5.43346
   C        3.72941         6.04923        -2.35351
   N        3.82942         6.55163        -1.32593
   C        3.38029         3.40940        -5.06635
   C        3.27663         2.02245        -4.75073
   C        3.44331         1.05804        -5.70239
   C        3.71718         1.44370        -7.03431
   C        3.80819         2.82880        -7.35750
   C        3.63575         3.80637        -6.35088
   C        4.07911         3.19929        -8.69029
   C        4.25506         2.24903        -9.65896
   C        4.16509         0.88576        -9.34030
   C        3.90228         0.49176        -8.05625
   C        2.96932         1.86885        -3.31710
   O        2.86357         0.84836        -2.67771
   C        2.74181         3.25757        -2.81956
   C        2.10275         3.45246        -1.63601
   C        1.42150         4.60459        -1.17284
   C        1.12246         4.90466         0.14616
   C        0.41664         6.09797         0.26923
   C        0.13127         6.69104        -0.97600
   S        0.75157         5.79878        -2.28390
   C       -0.58649         7.89039        -0.75391
   C       -0.74375         8.06928         0.63176
   C       -0.12454         6.94557         1.31978
   C       -0.06600         6.73596         2.66543
   C       -0.62673         7.63952         3.59386
   N       -1.08170         8.36553         4.35546
   C        0.54985         5.59415         3.22180
   N        1.03867         4.66382         3.67954
   C       -1.42227         9.24382         0.95213
   C       -1.78728         9.95513        -0.17646
   S       -1.28212         9.15793        -1.65874
   C       -2.47657        11.20517        -0.22992
   C       -2.85881        11.80090        -1.43164
   N       -3.47077        12.96416        -1.55614
   C       -3.78082        13.69477        -0.49474
   C       -3.47216        13.21168         0.80549
   C       -2.81205        11.94202         0.93674
   N       -2.59393        11.63266         2.21427
   S       -3.16018        12.81133         3.14570
   N       -3.70992        13.77645         1.98700
   C       -4.40833        14.95102        -0.73682
   C       -4.76747        15.93964         0.16128
   C       -5.32988        17.03587        -0.48897
   C       -5.40162        16.86018        -1.88643
   S       -4.76961        15.36056        -2.39871
   C       -5.98357        18.01910        -2.45365
   C       -6.26696        18.93815        -1.41913
   C       -5.87945        18.33980        -0.15019
   C       -6.01713        18.87381         1.09645
   C       -6.60849        20.13445         1.33239
   N       -7.10014        21.14448         1.55926
   C       -5.59621        18.18625         2.25568
   N       -5.25339        17.63876         3.20291
   C       -6.81459        20.12809        -1.88134
   C       -6.96679        20.13068        -3.26227
   S       -6.42617        18.60844        -3.98307
   C       -7.51964        21.07428        -4.15317
   C       -7.79653        22.39994        -3.97221
   C       -8.46957        23.23129        -4.95606
   C       -9.21507        22.79304        -6.02018
   C       -9.86936        23.64972        -6.93019
   N      -10.41884        24.28997        -7.70872
   C       -9.47321        21.44266        -6.33625
   N       -9.74483        20.37021        -6.64556
   C       -8.29623        24.62238        -4.56033
   C       -7.60955        24.65388        -3.31369
   C       -7.30585        23.27998        -2.87900
   O       -6.72279        22.96047        -1.86525
   C       -7.30913        25.82730        -2.68412
   C       -7.68846        27.04781        -3.28647
   C       -8.36960        27.02537        -4.53796
   C       -8.66730        25.79400        -5.16537
   C       -8.73905        28.24913        -5.13227
   C       -8.45202        29.43907        -4.52064
   C       -7.78195        29.46011        -3.28831
   C       -7.40864        28.29009        -2.68416
   H        3.36955         0.01235        -5.44312
   H        3.69919         4.84879        -6.62221
   H        4.15070         4.25013        -8.92964
   H        4.46535         2.54281       -10.67640
   H        4.30526         0.14930       -10.11729
   H        3.83246        -0.55655        -7.80535
   H        2.04464         2.58260        -0.98811
   H        1.44595         4.28830         0.96544
   H       -1.64949         9.59210         1.94315
   H       -2.65027        11.29915        -2.36806
   H       -4.61138        15.83813         1.21987
   H       -7.08956        20.96421        -1.26526
   H       -7.72765        20.66545        -5.13566
   H       -6.78984        25.82328        -1.73731
   H       -9.17722        25.81044        -6.11547
   H       -9.25608        28.22739        -6.08040
   H       -8.74026        30.37108        -4.98328
   H       -7.56297        30.40810        -2.82013
   H       -6.89259        28.30015        -1.73532
*
