# ORCA input file
# SCF done       -205.085823171025          0.000815089069
! CAM-B3LYP def2-SVP def2/J RIJCOSX Grid4 TightSCF
%maxcore 5000
%tddft
    Mode sTDDFT
    Ethresh 5.0
    maxcore 5000
end

%pal
  nprocs 6
  end
* xyz 0 1
   C        2.61332        -9.06048        -6.87494
   O        1.89752        -9.77032        -6.19218
   C        3.45486        -9.49535        -8.00529
   C        4.11890        -8.38049        -8.54775
   C        4.97965        -8.55740        -9.62191
   C        5.15898        -9.83449       -10.13189
   C        4.48918       -10.91990        -9.58129
   C        3.62335       -10.76954        -8.50601
  Br        4.76708       -12.64857       -10.31512
   C        3.72725        -7.18713        -7.79919
   C        4.13786        -5.91092        -8.07814
   C        5.02155        -5.57682        -9.12767
   N        5.73579        -5.23896        -9.95993
   C        3.74181        -4.74676        -7.38467
   N        3.46411        -3.75352        -6.88019
   C        2.82445        -7.61478        -6.74390
   C        2.29937        -6.82027        -5.75728
   C        1.45633        -7.14316        -4.68214
   C        1.09439        -6.18597        -3.72392
   C        0.29077        -6.71002        -2.73180
   C        0.01237        -8.08531        -2.93631
   S        0.75192        -8.72181        -4.33148
   C       -0.78597        -8.53951        -1.86081
   C       -1.00485        -7.46070        -0.97348
   C       -0.34576        -6.27625        -1.49841
   C       -0.32412        -5.03145        -0.94230
   C       -0.97830        -4.74892         0.27564
   N       -1.50753        -4.52534         1.26783
   C        0.35371        -3.94836        -1.54174
   N        0.90435        -3.06518        -2.02144
   C       -1.74770        -7.82270         0.14101
   C       -2.09772        -9.16800         0.10276
   S       -1.51466        -9.99343        -1.33504
   C       -2.79960        -9.90689         1.06908
   C       -3.12722       -11.26376         0.95861
   C       -3.79657       -11.78892         2.11383
   N       -4.22024       -13.05491         2.13510
   C       -3.97271       -13.78677         1.07112
   C       -4.51124       -15.17400         1.07105
   O       -5.25561       -15.58198         1.93351
   C       -4.09511       -16.00050        -0.07699
   C       -3.38381       -15.53348        -1.10813
   C       -2.91909       -14.13955        -1.21678
   O       -2.30697       -13.72794        -2.17841
   C       -3.24868       -13.27712        -0.05251
   N       -2.84617       -12.02544        -0.09762
   C       -3.96057       -10.82901         3.12477
   S       -3.33319        -9.29255         2.60004
   C       -4.49980       -11.04699         4.40555
   C       -4.81013       -12.28799         4.95597
   C       -5.26355       -12.16822         6.26110
   C       -5.33213       -10.82952         6.70557
   S       -4.80103        -9.72089         5.51934
   C       -5.82208       -10.81898         8.02838
   C       -6.05272       -12.15155         8.43694
   C       -5.68583       -13.04123         7.34805
   C       -5.66167       -14.40340         7.36791
   C       -6.07908       -15.14142         8.49740
   N       -6.41140       -15.73988         9.41669
   C       -5.15560       -15.17566         6.29821
   N       -4.69957       -15.81866         5.46682
   C       -6.50172       -12.24013         9.74798
   C       -6.65978       -10.99366        10.33938
   S       -6.18636        -9.69006         9.24937
   C       -7.02707       -10.77042        11.68469
   C       -7.43757        -9.62905        12.30286
   C       -7.28247        -9.50659        13.77936
   O       -7.04461       -10.39454        14.56148
   C       -7.41888        -8.05834        14.05522
   C       -7.77573        -7.38433        12.87212
   C       -7.94333        -8.36761        11.80508
   C       -8.69960        -8.19065        10.67652
   C       -9.26333        -6.95602        10.29514
   N       -9.72798        -5.96986         9.93722
   C       -9.07682        -9.25270         9.82869
   N       -9.43183       -10.10315         9.14459
   C       -7.93591        -6.00695        12.88417
   C       -7.74137        -5.32515        14.07562
   C       -7.39999        -6.00973        15.23570
   C       -7.23135        -7.38849        15.24653
  Br       -7.15156        -5.03264        16.84452
   H        5.51202        -7.73251       -10.06547
   H        5.82668        -9.98830       -10.96563
   H        3.10053       -11.60775        -8.07221
   H        2.58117        -5.77422        -5.77028
   H        1.43128        -5.16567        -3.77790
   H       -2.02752        -7.17225         0.95036
   H       -4.42878       -17.02876        -0.04272
   H       -3.11591       -16.16951        -1.94104
   H       -4.69776       -13.20072         4.39852
   H       -6.73514       -13.15455        10.26299
   H       -6.87391       -11.61827        12.34687
   H       -8.19480        -5.46068        11.99158
   H       -7.85640        -4.25255        14.10505
   H       -6.96567        -7.92264        16.14551
*
