# ORCA input file
# SCF done       -193.430293221604          0.000720290546
! CAM-B3LYP def2-SVP def2/J RIJCOSX Grid4 TightSCF
%maxcore 5000
%tddft
    Mode sTDDFT
    Ethresh 5.0
    maxcore 5000
end

%pal
  nprocs 6
  end
* xyz 0 1
   C        6.77959         0.13193        -2.48989
   S        5.94187         0.41144        -1.02428
   C        6.00300         2.13640        -1.27340
   C        6.63776         2.44041        -2.45976
   C        7.08678         1.28565        -3.14525
   C        7.81310         1.34106        -4.45445
   C        8.42531         2.72438        -4.69398
   C        9.68805         2.91395        -3.85898
   F        9.54137         2.66794        -2.55255
   F       10.66659         2.10052        -4.28604
   F       10.16537         4.16690        -3.95576
   C        7.38996         3.83016        -4.41763
   C        6.26992         3.63928        -5.31548
   N        5.37768         3.48418        -6.01088
   C        6.88398         3.82553        -2.96549
   C        5.45417         2.99737        -0.27831
   S        5.53230         4.73508        -0.37076
   C        4.72414         4.92557         1.15547
   C        4.41331         3.67400         1.69242
   C        4.82660         2.60273         0.88073
   C        3.74685         3.45969         2.90870
   N        3.20279         3.24227         3.89648
   C        4.49630         6.23488         1.64002
   C        3.96885         6.53995         2.85514
   C        3.77672         7.87535         3.28164
   N        3.27592         8.21162         4.52295
   C        2.81691         7.29697         5.54069
   C        1.43233         6.73728         5.22486
   C        3.20473         9.59680         4.70163
   O        2.80474        10.12837         5.72714
   C        3.70214        10.14857         3.46707
   C        4.04660         9.06624         2.61338
   C        4.53871         9.62093         1.37481
   O        4.94803         9.10367         0.35152
   N        4.45108        11.01258         1.55554
   C        4.89185        11.93098         0.53393
   C        6.28072        12.49071         0.83106
   C        3.96402        11.34148         2.79726
   C        3.78553        12.67851         3.24449
   C        3.33956        12.91913         4.49695
   N        3.13883        14.15155         5.06078
   C        2.72362        14.31783         6.37483
   C        2.44283        13.19141         7.28541
   C        2.64218        15.65733         6.62489
   C        3.01276        16.37985         5.43461
   C        3.33573        15.41965         4.41240
   O        3.69444        15.55203         3.26535
   C        2.93437        17.71924         5.68934
   C        3.19953        18.85894         4.78824
   N        2.51898        17.87812         6.99715
   C        2.33163        16.61917         7.65162
   O        1.99730        16.51046         8.80782
   C        2.36851        19.09028         7.65823
   S        3.65813        20.26152         7.69350
   C        2.72260        21.29400         8.69274
   C        1.50864        20.76692         8.99969
   C        1.29889        19.49161         8.40912
   C        0.04877        18.69470         8.61092
   C       -1.10001        19.56429         9.12930
   C       -1.72310        20.35534         7.98317
   F       -0.84051        20.99276         7.20196
   F       -2.42047        19.54732         7.16913
   F       -2.58454        21.29160         8.41747
   C       -0.63341        20.49089        10.26760
   C       -0.13429        19.68287        11.36155
   N        0.26539        19.06946        12.23727
   C        0.46152        21.46638         9.80926
   H        7.00235        -0.87247        -2.78970
   H        7.10922         1.13137        -5.26588
   H        8.59062         0.57423        -4.48539
   H        8.76074         2.80027        -5.73549
   H        7.82788         4.81087        -4.64049
   H        5.96286         4.41398        -2.91499
   H        7.61661         4.32275        -2.32157
   H        4.66834         1.57064         1.14081
   H        4.78291         7.03924         0.97465
   H        3.69301         5.74999         3.53622
   H        2.77676         7.87560         6.46800
   H        3.54076         6.48631         5.66084
   H        0.71497         7.54901         5.12939
   H        1.11251         6.07977         6.02802
   H        1.44286         6.16976         4.29737
   H        4.16375        12.73998         0.43125
   H        4.91838        11.35653        -0.39646
   H        6.28204        13.05409         1.76113
   H        6.59074        13.14911         0.02440
   H        6.99899        11.67849         0.91408
   H        4.01526        13.48883         2.57296
   H        3.11537        12.08722         5.15151
   H        3.32923        12.57249         7.42542
   H        1.66468        12.54302         6.88260
   H        2.12507        13.58541         8.24679
   H        3.26035        18.49705         3.76550
   H        4.14557        19.33591         5.04593
   H        2.41393        19.60888         4.87377
   H        3.12437        22.24157         8.99093
   H        0.25488        17.90292         9.33826
   H       -0.24399        18.20512         7.67738
   H       -1.90324        18.91775         9.50213
   H       -1.48949        21.06216        10.64882
   H        0.91730        21.94111        10.68163
   H        0.00853        22.25966         9.20672
*
