# ORCA input file
# SCF done       -191.585426429105          0.000515650912
! CAM-B3LYP def2-SVP def2/J RIJCOSX Grid4 TightSCF
%maxcore 5000
%tddft
    Mode sTDDFT
    Ethresh 5.0
    maxcore 5000
end

%pal
  nprocs 6
  end
* xyz 0 1
   C       -6.19889         0.30581         0.86862
   C       -5.58422        -0.60657         1.68045
   C       -4.49918        -1.41381         1.27775
   N       -3.59334        -2.06750         1.01582
   C       -5.91667        -0.79580         3.03884
   N       -6.16361        -1.00031         4.14050
   C       -7.15719         1.31813         1.30398
   C       -7.18018         2.36081         0.35787
   C       -7.97679         3.47522         0.54701
   C       -8.76078         3.53791         1.68688
   C       -8.76383         2.50667         2.62655
   C       -7.95417         1.38897         2.43338
   C       -9.64980         2.58921         3.82763
   C       -6.28662         2.03296        -0.76388
   O       -6.00016         2.70774        -1.72308
   C       -5.83629         0.62641        -0.50201
   C       -5.31016        -0.09443        -1.51469
   C       -5.11412        -1.52033        -1.62068
   C       -4.10298        -2.01127        -2.44432
   C       -3.89648        -3.37308        -2.57123
   N       -2.76349        -3.80790        -3.34958
   O       -2.30249        -3.02020        -4.14736
   O       -2.32638        -4.91954        -3.14389
   C       -4.71687        -4.30950        -1.91986
   C       -5.74349        -3.79993        -1.11482
   C       -5.93794        -2.44747        -0.96514
   C       -4.58156        -5.73302        -2.12610
   C       -4.67939        -6.64334        -1.13647
   C       -4.57497        -8.04188        -1.39009
   N       -4.44870        -8.99641        -0.41014
   C       -4.44046        -8.77739         1.01576
   C       -5.85447        -8.63036         1.57319
   C       -4.34385       -10.29312        -0.94672
   O       -4.18166       -11.28521        -0.26317
   C       -4.44402       -10.09692        -2.37560
   C       -4.56856        -8.70044        -2.61279
   C       -4.64122        -8.49585        -4.04002
   O       -4.76530        -7.49362        -4.71753
   N       -4.53345        -9.78882        -4.58140
   C       -4.62199       -10.01063        -6.00322
   C       -6.00789       -10.50010        -6.41709
   C       -4.43176       -10.75099        -3.60258
   C       -4.32174       -12.14502        -3.87031
   C       -4.37906       -13.05486        -2.87425
   C       -4.22545       -14.47482        -3.01515
   C       -3.75117       -15.14821        -4.11207
   S       -3.59512       -16.83304        -3.84756
   C       -4.15295       -16.67406        -2.23682
   C       -4.46410       -15.38396        -1.92580
   C       -5.03150       -14.96596        -0.63618
   O       -5.85911       -14.11412        -0.46966
   O       -4.49648       -15.70279         0.38448
   C       -4.78744       -15.33642         1.65131
   C       -4.28440       -16.01057         2.70015
   C       -4.53978       -15.58609         4.03206
   C       -4.04568       -16.19107         5.14599
   C       -4.23842       -15.77382         6.52642
   C       -4.98420       -14.71677         6.97329
   C       -5.71533       -13.81876         6.16589
   N       -6.33648       -13.04128         5.59294
   C       -5.13456       -14.36891         8.33337
   N       -5.30367       -14.02884         9.41659
   C       -3.48373       -16.69448         7.37333
   C       -2.86362       -17.65985         6.56142
   C       -3.18262       -17.40542         5.14721
   O       -2.81450       -18.05739         4.19331
   C       -2.08127       -18.66084         7.10723
   C       -1.91619       -18.69171         8.48118
   C       -2.51890       -17.74049         9.30491
   C       -3.30769       -16.73723         8.74732
   C       -2.30223       -17.79371        10.78371
   H       -7.97663         4.27055        -0.18215
   H       -9.38744         4.40119         1.85620
   H       -7.96655         0.59063         3.15873
   H       -9.71741         3.61221         4.19011
   H       -9.28347         1.95023         4.62672
   H      -10.65628         2.26124         3.56522
   H       -5.05037         0.48154        -2.39807
   H       -3.43917        -1.33503        -2.96292
   H       -6.41084        -4.49496        -0.62883
   H       -6.76366        -2.09288        -0.36585
   H       -4.39475        -6.07195        -3.13772
   H       -4.78111        -6.31908        -0.11012
   H       -3.83344        -7.89808         1.24724
   H       -3.96691        -9.65948         1.45591
   H       -6.36874        -7.78685         1.11731
   H       -5.81314        -8.47698         2.64792
   H       -6.42605        -9.53326         1.37321
   H       -3.84958       -10.72038        -6.31321
   H       -4.41847        -9.04356        -6.47179
   H       -6.25326       -11.43779        -5.92287
   H       -6.04104       -10.64979        -7.49278
   H       -6.75707        -9.76044        -6.14574
   H       -4.19775       -12.45398        -4.89815
   H       -4.55023       -12.70581        -1.86613
   H       -3.45969       -14.74104        -5.05919
   H       -4.24954       -17.53976        -1.61237
   H       -5.42342       -14.46194         1.75300
   H       -3.66162       -16.87743         2.53925
   H       -5.15894       -14.70490         4.13905
   H       -1.61605       -19.39286         6.46513
   H       -1.30884       -19.46357         8.93102
   H       -3.76808       -16.00777         9.39376
   H       -2.45888       -18.80357        11.15806
   H       -2.97387       -17.11506        11.30216
   H       -1.27654       -17.50912        11.01858
*
