# ORCA input file
# SCF done       -204.875956346205          0.000993396888
! CAM-B3LYP def2-SVP def2/J RIJCOSX Grid4 TightSCF
%maxcore 5000
%tddft
    Mode sTDDFT
    Ethresh 5.0
    maxcore 5000
end

%pal
  nprocs 6
  end
* xyz 0 1
   C       -0.49974        -1.45281        -3.19854
   O       -0.39082        -0.32640        -2.78444
   C       -1.23036        -1.92249        -4.39391
   C       -1.04731        -3.31071        -4.54884
   C       -1.68202        -3.97681        -5.58394
   C       -2.48095        -3.24526        -6.45523
   C       -2.64194        -1.86451        -6.30614
   C       -2.01453        -1.19324        -5.26509
  Br       -3.72605        -0.89619        -7.51141
  Br       -3.36185        -4.15234        -7.85732
   C       -0.12980        -3.78823        -3.51659
   C        0.60878        -4.93310        -3.57310
   C        0.43921        -5.91953        -4.56951
   N        0.32279        -6.74571        -5.35638
   C        1.71394        -5.20527        -2.73401
   N        2.69133        -5.43581        -2.17969
   C        0.02694        -2.70064        -2.56483
   C        0.37318        -2.68944        -1.25777
   C        0.54340        -3.81240        -0.39923
   O        0.97100        -3.58675         0.87647
   C        0.98197        -4.79970         1.46002
   C        0.53288        -5.74619         0.48694
   N        0.27125        -5.05883        -0.66019
   C        0.42997        -7.10134         0.76344
   C        0.79350        -7.45197         2.05241
   C        1.23216        -6.48435         3.01045
   C        1.34460        -5.13327         2.74994
   O        1.49895        -7.14060         4.15138
   C        1.23120        -8.44765         3.87788
   N        0.81960        -8.67333         2.66451
   C        1.41333        -9.38888         4.93583
   N        1.22954       -10.73800         4.82651
   C        0.90181       -11.47403         3.62899
   C        2.13128       -11.69491         2.75361
   C        1.46258       -11.39213         6.06055
   O        1.35590       -12.58695         6.21411
   C        1.80940       -10.31689         6.96745
   C        1.76857        -9.09766         6.24484
   C        2.08140        -8.02582         7.16642
   O        2.18033        -6.82867         7.03067
   N        2.26816        -8.68134         8.41038
   C        2.71847        -7.91066         9.54546
   C        4.16379        -8.22464         9.91991
   C        2.11076       -10.04357         8.29773
   C        2.19418       -11.04949         9.30322
   C        2.18309       -10.90518        10.64666
   C        2.27592       -12.02565        11.52541
   O        2.14389       -11.80035        12.87287
   C        2.30109       -13.01114        13.44201
   C        2.53393       -13.95075        12.38826
   N        2.49958       -13.26393        11.20875
   C        2.75981       -15.29324        12.63773
   C        2.73671       -15.64149        13.98000
   C        2.48233       -14.68695        15.01200
   C        2.26033       -13.34321        14.78061
   O        2.52153       -15.34290        16.18755
   C        2.81964       -16.63256        15.85975
   N        2.94574       -16.84626        14.58196
   C        2.89092       -17.60085        16.90288
   C        3.36213       -18.86457        16.81000
   C        3.00725       -19.86776        17.86005
   O        2.55714       -19.64339        18.95542
   C        3.27261       -21.17779        17.23030
   C        3.86118       -20.98717        15.96470
   C        4.07195       -19.55813        15.74695
   C        4.95986       -19.01008        14.86868
   C        5.37380       -17.65885        14.89715
   N        5.83791       -16.61071        14.93592
   C        5.67033       -19.76071        13.90600
   N        6.26042       -20.33259        13.10641
   C        4.16948       -22.08408        15.17712
   C        3.89591       -23.35493        15.66922
   C        3.32552       -23.53622        16.93287
   C        3.00645       -22.43975        17.72278
  Br        2.97443       -25.27521        17.57936
  Br        4.30767       -24.85174        14.59460
   H       -1.58143        -5.04104        -5.72461
   H       -2.13646        -0.12873        -5.13769
   H        0.44842        -1.72274        -0.77391
   H        0.10194        -7.81993         0.03402
   H        1.68131        -4.41947         3.48078
   H        0.14219       -10.92224         3.07317
   H        0.50386       -12.43548         3.96413
   H        2.52217       -10.74234         2.40647
   H        1.85913       -12.29347         1.88963
   H        2.90350       -12.21804         3.31234
   H        2.04517        -8.05883        10.39342
   H        2.64151        -6.86513         9.23005
   H        4.28402        -9.27024        10.19282
   H        4.46576        -7.60609        10.76052
   H        4.81880        -8.00950         9.07928
   H        2.22751       -12.05808         8.91048
   H        2.08517        -9.95459        11.14549
   H        2.94957       -16.00472        11.85443
   H        2.08176       -12.62896        15.56523
   H        2.44740       -17.30439        17.84617
   H        4.60534       -21.97850        14.19662
   H        2.56284       -22.56864        18.69793
*
