# ORCA input file
# SCF done       -212.669580291514          0.000944836230
! CAM-B3LYP def2-SVP def2/J RIJCOSX Grid4 TightSCF
%maxcore 5000
%tddft
    Mode sTDDFT
    Ethresh 5.0
    maxcore 5000
end

%pal
  nprocs 6
  end
* xyz 0 1
   C       12.35023        -0.55230         4.82540
   C       13.50740        -0.67964         5.53063
   S       13.32775        -0.08159         7.13824
   C       11.65917         0.35114         6.86533
  Cl       10.71302         1.05099         8.07993
   C       11.28918         0.03951         5.58818
   C       10.08258         0.14154         4.77591
   O        9.00536         0.60604         5.07361
   C       10.47299        -0.43227         3.44183
   C       11.86703        -0.86873         3.49859
   C       12.58415        -1.49585         2.52168
   C       13.93261        -1.86642         2.72345
   N       15.02777        -2.17045         2.87352
   C       12.08704        -1.86040         1.25233
   N       11.73862        -2.19493         0.21195
   C        9.65392        -0.44961         2.37573
   C        8.26477        -0.02444         2.43575
   C        7.76195         0.99791         1.62536
   C        8.62162         1.75092         0.69033
   O        9.80008         1.61582         0.53577
   S        7.62004         2.94126        -0.18203
   C        6.10870         2.46566         0.69092
   O        5.04257         2.92439         0.42065
   C        6.43929         1.42754         1.68573
   C        5.49899         0.88424         2.58742
   C        6.00663        -0.16190         3.38458
   C        7.32712        -0.58977         3.30137
   C        7.51909        -1.66905         4.30351
   O        8.47187        -2.34687         4.52970
   O        6.33495        -1.79925         4.97564
   C        5.38581        -0.92868         4.49425
   O        4.28980        -0.87826         4.96009
   C        4.18349         1.44672         2.71101
   C        3.04878         0.75401         2.95189
   C        1.79949         1.41180         3.12689
   N        0.60417         0.76051         3.29109
   C        0.39970        -0.66646         3.36707
   C        0.79556        -1.22769         4.73060
   C       -0.47159         1.66180         3.44900
   O       -1.62130         1.31694         3.60697
   C        0.15242         2.96606         3.36536
   C        1.54026         2.78043         3.17022
   C        2.14894         4.09139         3.11621
   O        3.30490         4.44614         3.00939
   N        1.07201         4.99131         3.25771
   C        1.32497         6.41138         3.20771
   C        1.07744         6.97864         1.81187
   C       -0.12465         4.33093         3.40644
   C       -1.43545         4.84445         3.60569
   C       -1.88446         6.11977         3.56485
   C       -3.24835         6.44833         3.82158
   O       -4.15268         5.47657         4.15456
   C       -5.31272         6.13473         4.34273
   C       -5.06143         7.52304         4.10737
   N       -3.74078         7.65087         3.78432
   C       -6.05485         8.48029         4.22309
   C       -7.29548         7.98103         4.58846
   C       -7.51937         6.58985         4.82349
   C       -6.54127         5.62141         4.70553
   O       -8.81240         6.44268         5.17002
   C       -9.33491         7.70266         5.12302
   N       -8.47937         8.62537         4.79180
   C      -10.69086         7.88858         5.51984
   C      -11.42447         9.01993         5.42469
   C      -12.66246         9.15910         6.26762
   O      -13.25116         8.26834         6.82663
   C      -12.91920        10.60164         6.28602
   C      -13.78519        11.45485         6.90519
   S      -13.46811        13.10341         6.42358
   C      -12.17752        12.62148         5.38306
   C      -11.99894        11.27426         5.41365
   C      -11.15577        10.28864         4.76282
   C      -10.43382        10.50457         3.62492
   C      -10.30210        11.79922         3.07816
   N      -10.18227        12.85089         2.63639
   C       -9.86539         9.49106         2.82449
   N       -9.47928         8.71579         2.07177
  Cl      -15.02106        11.07523         7.99837
   H       14.45181        -1.08068         5.21971
   H       10.01611        -0.75440         1.40224
   H        4.12323         2.52058         2.57405
   H        3.05750        -0.32390         2.99275
   H        0.95687        -1.15845         2.56494
   H       -0.66983        -0.82436         3.20046
   H        1.84946        -1.06010         4.93822
   H        0.59956        -2.29612         4.75467
   H        0.20757        -0.75105         5.51101
   H        2.38201         6.53582         3.46231
   H        0.72115         6.91706         3.96394
   H        1.76245         6.51883         1.10370
   H        1.24928         8.05128         1.81417
   H        0.05937         6.78567         1.48161
   H       -2.15840         4.06265         3.80813
   H       -1.27279         6.97476         3.33330
   H       -5.87983         9.52527         4.04094
   H       -6.71810         4.57450         4.87945
   H      -11.14239         7.04835         6.03438
   H      -11.63822        13.36573         4.83149
*
