# ORCA input file
# SCF done       -232.800538474644          0.000983854770
! CAM-B3LYP def2-SVP def2/J RIJCOSX Grid4 TightSCF
%maxcore 5000
%tddft
    Mode sTDDFT
    Ethresh 5.0
    maxcore 5000
end

%pal
  nprocs 6
  end
* xyz 0 1
   C       -1.84875         0.77353        -0.70096
   C       -2.79250         1.47688        -1.39953
   C       -4.11515         1.02728        -1.60204
   N       -5.20566         0.71828        -1.77835
   C       -2.54348         2.69184        -2.06834
   N       -2.39054         3.66254        -2.66259
   C       -1.99216        -0.59357        -0.22028
   C       -0.69301        -1.13497         0.01496
   C       -0.51750        -2.42601         0.42416
   C       -1.65033        -3.24542         0.62658
   C       -2.95216        -2.70452         0.41232
   C       -3.10484        -1.36589        -0.01341
   C       -4.07443        -3.53159         0.62358
   C       -3.92042        -4.83146         1.02200
   C       -2.63881        -5.36356         1.23014
   C       -1.52807        -4.58765         1.03685
   C        0.32564        -0.10483        -0.24469
   O        1.52553        -0.20250        -0.19104
   C       -0.45445         1.14632        -0.52600
   C        0.15972         2.34672        -0.47775
   C       -0.44945         3.63812        -0.38113
   C       -0.04152         4.79396        -1.02353
   C        1.06725         4.81381        -1.97527
   O        1.71040         3.83577        -2.28713
   C        1.31738         6.16136        -2.53691
   C        0.56392         7.30642        -2.16002
   C        0.96379         8.42788        -2.84720
   S        2.24960         8.12014        -3.94385
   C        2.26483         6.46493        -3.48505
   C        3.25670         5.53717        -4.11964
   F        2.67718         4.55476        -4.81151
   F        4.03489         6.20599        -4.99063
   F        4.08206         4.98240        -3.22917
   C        0.39153         9.80949        -2.75189
   F       -0.92669         9.83077        -2.97249
   F        0.61689        10.38528        -1.56923
   F        0.94313        10.61512        -3.67638
   C       -0.51161         7.27592        -1.14237
   O       -1.03541         8.28287        -0.71375
   C       -0.83790         5.92546        -0.69439
   C       -1.84867         5.61918         0.20209
   S       -1.79638         3.94984         0.66475
   C       -2.82953         6.44192         0.85320
   N       -3.68330         7.34926         0.29454
   C       -3.91787         7.62222        -1.10426
   C       -4.30261         6.37382        -1.88923
   C       -4.49645         7.95689         1.28139
   O       -5.35755         8.77241         1.02496
   C       -4.06881         7.36239         2.52583
   C       -3.06728         6.40622         2.21871
   C       -2.60247         5.81937         3.45670
   O       -1.77446         4.96346         3.68801
   N       -3.36020         6.47209         4.44611
   C       -3.21485         6.13708         5.84256
   C       -4.32325         5.20408         6.32322
   C       -4.23928         7.38420         3.90821
   C       -5.13309         8.16826         4.68154
   C       -6.01453         9.03227         4.11951
   C       -6.92915         9.78401         4.90261
   S       -8.09295        10.88577         4.18645
   C       -8.63584        11.17556         5.83735
   N       -7.95360        10.48456         6.71201
   N       -7.02980         9.73080         6.20731
   C       -9.71101        12.05363         6.13472
   C      -10.16652        12.27333         7.39321
   C      -11.26595        13.13738         7.62875
   C      -11.80912        13.40610         8.84930
   C      -12.94789        14.26834         9.12317
   C      -13.71388        14.93776         8.20455
   C      -14.81657        15.75401         8.53701
   N      -15.72204        16.43200         8.73325
   C      -13.53721        14.91552         6.80493
   N      -13.46909        14.95200         5.65912
   C      -13.15369        14.28807        10.56668
   C      -12.18047        13.44850        11.18008
   C      -11.31298        12.86037        10.14564
   O      -10.39090        12.09522        10.32264
   C      -12.12904        13.27058        12.53278
   C      -13.06725        13.93688        13.35194
   C      -14.04508        14.77860        12.74679
   C      -14.07313        14.94388        11.34351
   C      -14.97801        15.43859        13.57280
   C      -14.94756        15.27656        14.93102
   C      -13.98374        14.44829        15.52581
   C      -13.06380        13.79263        14.75328
   H        0.47498        -2.81853         0.58778
   H       -4.10132        -0.97870        -0.15841
   H       -5.05870        -3.11884         0.45843
   H       -4.78572        -5.45778         1.17833
   H       -2.53625        -6.39128         1.54430
   H       -0.53923        -4.99198         1.19524
   H        1.24674         2.33062        -0.48565
   H       -3.04134         8.10722        -1.53909
   H       -4.74359         8.34018        -1.11567
   H       -3.48018         5.66551        -1.95997
   H       -4.58682         6.65997        -2.89750
   H       -5.15073         5.87807        -1.42103
   H       -3.19380         7.05407         6.43707
   H       -2.24762         5.63456         5.93231
   H       -5.30023         5.66896         6.21344
   H       -4.16802         4.96110         7.37054
   H       -4.30939         4.28235         5.74661
   H       -5.12132         8.06960         5.75691
   H       -6.05475         9.16466         3.04712
   H      -10.17593        12.54687         5.29074
   H       -9.69485        11.77704         8.22824
   H      -11.69653        13.60560         6.75222
   H      -11.38006        12.62809        12.97151
   H      -14.82513        15.58935        10.91868
   H      -15.71808        16.07491        13.11010
   H      -15.66633        15.78597        15.55518
   H      -13.97409        14.33258        16.59928
   H      -12.31956        13.15363        15.20555
*
