# ORCA input file
# SCF done       -168.044724962166          0.000733254969
! CAM-B3LYP def2-SVP def2/J RIJCOSX Grid4 TightSCF
%maxcore 5000
%tddft
    Mode sTDDFT
    Ethresh 5.0
    maxcore 5000
end

%pal
  nprocs 6
  end
* xyz 0 1
   C       -0.70446        -1.22952        -3.66733
   S       -0.95512        -0.17494        -5.05525
   C       -1.82549         1.03348        -4.06976
   O       -2.28044         2.05610        -4.48806
   N       -1.87533         0.58710        -2.77937
   C       -1.29117        -0.62847        -2.46707
   O       -1.29962        -1.07538        -1.34159
   C       -2.53284         1.38613        -1.76703
   C       -0.04816        -2.40684        -3.84506
   C        0.29238        -3.44195        -2.94028
   S        1.12697        -4.83018        -3.60566
   C        1.20507        -5.61314        -2.06432
   C        0.60240        -4.80769        -1.08414
   C        0.09691        -3.60054        -1.58166
   C        0.48873        -5.14421         0.27554
   N        0.37798        -5.39098         1.39110
   C        1.81347        -6.88608        -1.97176
   C        1.94991        -7.60864        -0.82587
   C        2.55483        -8.88566        -0.80148
   N        2.68745        -9.64157         0.34288
   C        2.20630        -9.29826         1.66066
   C        0.70151        -9.51548         1.79419
   C        3.31654       -10.86655         0.09288
   O        3.54362       -11.70046         0.95323
   C        3.59753       -10.84588        -1.32487
   C        3.11984        -9.61930        -1.84550
   C        3.39609        -9.60097        -3.26508
   O        3.17363        -8.77425        -4.12842
   N        4.02055       -10.83389        -3.51452
   C        4.50681       -11.17652        -4.82886
   C        6.01541       -10.97343        -4.94521
   C        4.15159       -11.58708        -2.37109
   C        4.72018       -12.88023        -2.32971
   C        4.83741       -13.56680        -1.16154
   C        5.35807       -14.87214        -1.03939
   S        5.91189       -15.80735        -2.39184
   C        6.31765       -17.15905        -1.36919
   C        6.00328       -16.88431        -0.04131
   C        5.47507       -15.60152         0.14140
   C        5.03371       -15.05594         1.46474
   C        5.40298       -15.97693         2.62202
   N        6.81319       -15.72838         3.07219
   O        7.42724       -16.67456         3.49645
   O        7.21569       -14.59857         3.00991
   C        5.23484       -17.45352         2.26296
   N        3.78210       -17.68253         1.97521
   O        3.49136       -18.27063         0.96936
   O        3.00835       -17.26244         2.79896
   C        6.10378       -17.86451         1.08338
   C        6.83747       -18.29515        -2.03834
   C        7.59076       -19.34581        -1.63405
   S        8.34270       -19.69577        -0.09404
   C        9.10033       -21.19283        -0.72873
   O        9.79068       -21.91895        -0.07914
   N        8.75901       -21.33976        -2.04102
   C        7.95323       -20.37678        -2.62018
   O        7.61011       -20.39951        -3.77802
   C        9.24241       -22.47451        -2.79842
   H       -2.05374         2.36235        -1.69575
   H       -2.44474         0.85124        -0.82300
   H       -3.58223         1.52450        -2.02686
   H        0.27245        -2.59706        -4.86351
   H       -0.39673        -2.86767        -0.97013
   H        2.18746        -7.29819        -2.90065
   H        1.58829        -7.20911         0.10855
   H        2.46732        -8.26150         1.88833
   H        2.73574        -9.95690         2.35469
   H        0.15167        -8.88184         1.10231
   H        0.38770        -9.27504         2.80567
   H        0.45411       -10.55427         1.58845
   H        3.99111       -10.50939        -5.52518
   H        4.23400       -12.20950        -5.06213
   H        6.26557        -9.93316        -4.75208
   H        6.34493       -11.22955        -5.94813
   H        6.54904       -11.59639        -4.23079
   H        5.05662       -13.33160        -3.25278
   H        4.50079       -13.09727        -0.24730
   H        3.95123       -14.89936         1.45365
   H        5.48590       -14.07496         1.63712
   H        4.77600       -15.73559         3.49073
   H        5.47394       -18.07495         3.13433
   H        5.79851       -18.85151         0.73267
   H        7.13731       -17.94560         1.43011
   H        6.62811       -18.31804        -3.10476
   H       10.32098       -22.56525        -2.67550
   H        8.98856       -22.29877        -3.84247
   H        8.76607       -23.39081        -2.44808
*
