# ORCA input file
# SCF done       -119.168573079084          0.000946919049
! CAM-B3LYP def2-SVP def2/J RIJCOSX Grid4 TightSCF
%maxcore 5000
%tddft
    Mode sTDDFT
    Ethresh 5.0
    maxcore 5000
end

%pal
  nprocs 6
  end
* xyz 0 1
   C        0.62685         0.79051        -2.86029
   C        1.31969        -0.39893        -2.76514
   F        1.63151        -1.06039        -3.89694
   C        1.70515        -0.93458        -1.54835
   C        1.37950        -0.24722        -0.38971
   C        0.68606         0.94518        -0.45217
   C        0.30456         1.47396        -1.68855
   C       -0.41724         2.72311        -1.73122
   S       -0.95108         3.48428        -3.22149
   C       -1.60683         4.74710        -2.18650
   N       -1.39194         4.51463        -0.92219
   N       -0.74244         3.40960        -0.67707
   C       -2.28621         5.87723        -2.71747
   C       -2.78271         6.85173        -1.91814
   C       -3.45955         7.99064        -2.42637
   N       -3.98701         8.98232        -1.63043
   C       -4.00299         9.01112        -0.18807
   C       -5.07278         8.08713         0.38845
   C       -4.59225         9.99936        -2.38624
   O       -5.12559        10.97486        -1.89244
   C       -4.40265         9.58756        -3.75829
   C       -3.70739         8.34841        -3.74771
   C       -3.50625         7.94089        -5.11853
   O       -2.96998         6.96787        -5.61312
   N       -4.08915         8.97100        -5.87651
   C       -4.12508         8.90368        -7.31699
   C       -5.48349         8.43399        -7.83272
   C       -4.63070         9.95545        -5.08035
   C       -5.27273        11.11532        -5.59444
   C       -5.81158        12.06126        -4.79248
   C       -6.47478        13.25266        -5.24525
   C       -7.19094        14.05793        -4.34247
   N       -7.82737        15.14591        -4.70516
   C       -7.78947        15.49009        -5.99054
   N       -7.11386        14.81916        -6.92889
   C       -6.47007        13.73550        -6.56364
   C       -8.50648        16.68804        -6.42340
   C       -9.47708        17.31739        -5.64056
   F       -9.82659        16.82109        -4.44486
   C      -10.13351        18.45489        -6.07647
   C       -9.82554        18.99021        -7.31414
   C       -8.87099        18.37951        -8.11454
   C       -8.22385        17.24340        -7.67389
   H        0.34534         1.17444        -3.82882
   H        2.24648        -1.86671        -1.52134
   H        1.67178        -0.64955         0.56795
   H        0.42711         1.48897         0.44172
   H       -2.39150         5.93175        -3.79191
   H       -2.65241         6.75680        -0.85018
   H       -4.22329        10.04597         0.08931
   H       -3.01360         8.74524         0.19405
   H       -6.05422         8.38413         0.02665
   H       -5.06781         8.15223         1.47289
   H       -4.89318         7.05424         0.09891
   H       -3.35590         8.18069        -7.60364
   H       -3.86332         9.87906        -7.73712
   H       -5.70438         7.44339        -7.44296
   H       -5.46845         8.38471        -8.91812
   H       -6.27613         9.11171        -7.52259
   H       -5.32255        11.21656        -6.66876
   H       -5.76942        11.92803        -3.71907
   H       -7.24567        13.79893        -3.29221
   H       -5.91495        13.24076        -7.35145
   H      -10.87837        18.90537        -5.43841
   H      -10.33328        19.88011        -7.65373
   H       -8.63271        18.79344        -9.08196
   H       -7.47950        16.75570        -8.28256
*
