# ORCA input file
# SCF done       -164.376751120794          0.000603300025
! CAM-B3LYP def2-SVP def2/J RIJCOSX Grid4 TightSCF
%maxcore 5000
%tddft
    Mode sTDDFT
    Ethresh 5.0
    maxcore 5000
end

%pal
  nprocs 6
  end
* xyz 0 1
   C      -10.02594         8.19103         3.18703
   N       -9.38885         7.01430         3.44189
   C       -9.97365         5.82549         4.01271
   C      -10.61617         4.93949         2.94978
   C       -8.05163         7.05632         3.01854
   O       -7.28900         6.10448         3.14411
   C       -7.88125         8.37887         2.48321
   C       -9.14015         9.05473         2.60868
   C       -8.98394        10.39062         2.07301
   O       -9.74944        11.32170         1.95649
   N       -7.63890        10.43532         1.65121
   C       -7.07361        11.63983         1.09614
   C       -6.24631        12.40675         2.12551
   C       -6.97412         9.25373         1.89070
   C       -5.61323         9.02378         1.54772
   C       -5.05441         7.82026         1.82489
   C       -3.73363         7.36716         1.55169
   C       -2.67641         8.13074         0.99706
   C       -1.51730         7.42952         0.85580
   S       -0.02599         8.06841         0.21366
   C        1.07146         6.63246         0.37005
   S       -1.68300         5.78039         1.39419
   C       -3.34772         6.04599         1.82785
   C       -4.16083         5.02676         2.36582
   C       -3.80670         3.74203         2.61796
   C       -4.72809         2.80843         3.16524
   S       -4.23300         1.18003         3.54944
   C       -5.80943         0.76715         4.15686
   C       -6.67425         1.85313         4.02178
   C       -6.05972         2.99164         3.47226
   C       -8.05699         1.86176         4.27869
   N       -9.19604         1.95189         4.38839
   C       -6.01695        -0.51397         4.73579
   C       -7.04547        -0.80814         5.56280
   C       -7.23784        -2.07174         6.20776
   C       -6.64897        -3.29200         5.79413
   C       -6.99827        -4.35372         6.57490
   S       -6.54755        -6.03382         6.44933
   C       -5.50212        -6.02044         4.96483
   S       -8.05866        -3.89772         7.87211
   C       -8.04229        -2.22998         7.34300
   C       -8.72612        -1.21049         8.02455
   C       -9.49188        -1.34205         9.14266
   C      -10.15642        -0.21690         9.68352
   N      -11.00024        -0.25244        10.77213
   C      -11.34782        -1.41602        11.54902
   C      -12.40637        -2.27044        10.85516
   C      -11.57606         1.00167        11.03858
   O      -12.35046         1.19690        11.95581
   C      -11.02161         1.87403        10.02806
   C      -10.13671         1.09927         9.22555
   C       -9.56628         1.97058         8.23333
   O       -8.72174         1.79279         7.36877
   N      -10.18574         3.20927         8.45647
   C       -9.90148         4.33315         7.59967
   C       -8.87132         5.27994         8.21053
   C      -11.04374         3.16900         9.53247
   C      -11.79625         4.30325         9.98404
   C      -12.60673         4.26256        11.04377
   H      -11.06009         8.32607         3.44331
   H      -10.70951         6.12015         4.76516
   H       -9.16329         5.27431         4.49777
   H      -11.45920         5.44334         2.48187
   H      -10.95647         4.01393         3.40475
   H       -9.88509         4.69413         2.18330
   H       -7.92217        12.25264         0.77860
   H       -6.47012        11.39182         0.21805
   H       -6.87301        12.68626         2.96881
   H       -5.84360        13.31069         1.67671
   H       -5.42216        11.79961         2.49400
   H       -5.05888         9.81038         1.05897
   H       -5.69439         7.10542         2.31414
   H       -2.76005         9.16476         0.71876
   H        2.04028         6.94738        -0.00385
   H        0.68499         5.81203        -0.22794
   H        1.14609         6.34416         1.41469
   H       -5.17341         5.31381         2.59941
   H       -2.80282         3.39233         2.41409
   H       -6.59065         3.91353         3.31507
   H       -5.23868        -1.24108         4.54436
   H       -7.75049        -0.02497         5.79991
   H       -6.01462        -3.37024         4.93138
   H       -5.18631        -7.04824         4.81531
   H       -4.63627        -5.38625         5.13037
   H       -6.08257        -5.68210         4.11166
   H       -8.62395        -0.22126         7.60269
   H       -9.61219        -2.30793         9.61287
   H      -11.74497        -1.04050        12.49663
   H      -10.44629        -2.00191        11.74996
   H      -13.31036        -1.68597        10.70254
   H      -12.64807        -3.13171        11.47208
   H      -12.05159        -2.61915         9.88776
   H      -10.83129         4.86255         7.37294
   H       -9.50408         3.90632         6.67346
   H       -9.22807         5.68908         9.15351
   H       -8.66905         6.09902         7.52512
   H       -7.94342         4.74432         8.39490
   H      -11.68016         5.22008         9.42193
   H      -12.73425         3.36162        11.61988
   H      -13.15813         5.13182        11.35825
*
