# ORCA input file
# SCF done       -180.079351033477          0.000820242262
! CAM-B3LYP def2-SVP def2/J RIJCOSX Grid4 TightSCF
%maxcore 5000
%tddft
    Mode sTDDFT
    Ethresh 5.0
    maxcore 5000
end

%pal
  nprocs 6
  end
* xyz 0 1
   C       -3.63759        -1.68893         0.98465
   N       -2.69880        -1.20560         0.12845
   C       -1.74994        -1.99369        -0.61591
   C       -0.61287        -2.49121         0.27312
   C       -2.70217         0.21215         0.10108
   O       -1.95099         0.86821        -0.59240
   C       -3.75146         0.56657         1.02115
   C       -4.30818        -0.64029         1.54961
   C       -5.36358        -0.26649         2.46511
   O       -6.13707        -0.91639         3.13367
   N       -5.36357         1.14658         2.44351
   C       -6.33737         1.86104         3.23088
   C       -5.80283         2.21942         4.61669
   C       -4.40254         1.65105         1.58967
   C       -4.08154         2.99919         1.27996
   C       -4.44776         4.14234         1.90978
   C       -4.01513         5.43359         1.51049
   S       -2.93268         5.64687         0.16637
   C       -2.85181         7.36377         0.44171
   C       -3.59329         7.72996         1.55835
   C       -4.29893         6.65096         2.12027
   C       -5.30844         6.80188         3.22534
   C       -6.71091         6.43333         2.72358
   C       -5.33667         8.23932         3.76004
   C       -3.95999         8.88147         3.70870
   C       -3.52164         9.06628         2.24630
   C       -2.12476         9.62216         2.24984
   C       -1.83132        10.90293         2.12948
   C       -2.11050         8.13354        -0.49933
   C       -2.28135         9.45307        -0.73518
   C       -1.54038        10.21612        -1.68062
   S       -1.82701        11.93128        -1.77970
   C       -0.65331        12.13216        -3.04431
   C       -0.07590        10.90136        -3.35719
   C       -0.57576         9.83566        -2.58566
   C        0.91292        10.69845        -4.33403
   N        1.72052        10.48569        -5.12133
   C       -0.43503        13.43344        -3.56779
   C        0.38030        13.75240        -4.59917
   C        0.56889        15.08312        -5.07400
   S        1.55189        15.35680        -6.48573
   C        1.29226        17.05979        -6.40791
   C        2.01788        17.99196        -7.30015
   O        2.38137        19.07690        -6.93245
   O        2.30111        17.53708        -8.52445
   C        0.48820        17.40242        -5.33183
   C        0.09822        16.27569        -4.57846
   C        0.07193        18.73882        -4.98656
   C       -0.29407        19.71068        -5.85100
   C       -0.64894        21.08300        -5.50915
   C       -0.52188        21.67752        -4.28356
   C       -0.85576        23.02356        -4.01804
   N       -1.11669        24.10379        -3.73111
   C       -0.05762        21.05029        -3.10741
   N        0.29151        20.61593        -2.10355
   C       -1.12570        21.73233        -6.72214
   C       -1.06687        20.79844        -7.79621
   C       -0.53671        19.51911        -7.31056
   O       -0.38798        18.50396        -7.95927
   C       -1.45324        21.12932        -9.06409
   C       -1.92436        22.43523        -9.32161
   C       -1.98986        23.37535        -8.25230
   C       -1.58351        23.00399        -6.95081
   C       -2.46535        24.67552        -8.51972
   C       -2.85684        25.03187        -9.78138
   C       -2.79106        24.10585       -10.83354
   C       -2.33410        22.83568       -10.60887
   H       -3.76579        -2.74644         1.12508
   H       -1.35256        -1.34099        -1.39798
   H       -2.26853        -2.83797        -1.08005
   H       -0.08840        -1.64701         0.71388
   H        0.09202        -3.07027        -0.31679
   H       -0.99786        -3.11879         1.07408
   H       -7.18911         1.18326         3.34827
   H       -6.66909         2.74542         2.68197
   H       -5.59234         1.30785         5.16971
   H       -6.54545         2.79438         5.16364
   H       -4.88340         2.79728         4.55014
   H       -3.40951         3.07806         0.43283
   H       -5.05265         4.11491         2.80094
   H       -5.03469         6.12329         4.04242
   H       -6.99286         7.08593         1.89989
   H       -7.43391         6.55922         3.52646
   H       -6.76181         5.40835         2.36934
   H       -5.71494         8.23650         4.78347
   H       -6.02315         8.83649         3.15528
   H       -3.23438         8.25011         4.22645
   H       -3.97479         9.85454         4.20173
   H       -4.20534         9.78109         1.77256
   H       -1.34325         8.89554         2.42701
   H       -2.59065        11.64961         1.95993
   H       -0.81926        11.26328         2.19292
   H       -1.40549         7.57331        -1.09856
   H       -3.03277        10.00140        -0.19049
   H       -0.23457         8.82336        -2.70609
   H       -0.99692        14.21642        -3.07680
   H        0.92799        12.97877        -5.11690
   H        1.84990        16.70695        -8.72946
   H       -0.52697        16.35274        -3.70766
   H        0.02671        18.93022        -3.92206
   H       -1.39475        20.40278        -9.86088
   H       -1.64711        23.73854        -6.16388
   H       -2.51272        25.38528        -7.70696
   H       -3.21913        26.03013        -9.97611
   H       -3.10412        24.40446       -11.82279
   H       -2.28030        22.11872       -11.41494
*
