# ORCA input file
# SCF done       -187.194240316375          0.000863299278
! CAM-B3LYP def2-SVP def2/J RIJCOSX Grid4 TightSCF
%maxcore 5000
%tddft
    Mode sTDDFT
    Ethresh 5.0
    maxcore 5000
end

%pal
  nprocs 6
  end
* xyz 0 1
   C        3.74551        15.24959        -1.91938
   S        3.70343        14.19239        -3.26648
   C        4.00260        12.80921        -2.24737
   C        4.10118        13.18786        -0.92623
   C        3.96056        14.58751        -0.74872
   C        4.00810        15.26321         0.58988
   C        4.53769        14.33098         1.68396
   C        6.06056        14.27998         1.65812
   F        6.60162        14.06053         0.45347
   F        6.58702        15.44061         2.09067
   F        6.55213        13.32538         2.46898
   C        3.91436        12.93978         1.55253
   C        4.29791        12.26525         0.23626
   C        4.12001        11.52916        -2.88314
   C        4.72339        10.45401        -2.35122
   N        4.85084         9.25099        -3.00612
   C        5.51191         8.16911        -2.51242
   S        6.28377         7.06512        -3.60801
   C        6.94223         6.19708        -2.25480
   N        7.71398         5.07060        -2.52816
   O        8.16405         4.44307        -1.58579
   O        7.88121         4.79259        -3.70723
   C        6.58872         6.73666        -1.04610
   C        5.74826         7.85569        -1.17079
   C        5.15295         8.55007        -0.04957
   C        5.82250         8.83275         1.08839
   C        5.26571         9.50322         2.20386
   C        6.02632        10.00155         3.22403
   C        5.59314        10.64107         4.41671
   C        6.59915        11.01211         5.25246
   C        7.89046        10.70404         4.76457
   S        7.78108         9.93418         3.19638
   C        9.11686        10.90183         5.35756
   C        9.43804        11.41759         6.63426
   C       10.76696        11.40717         6.92809
   C       11.58674        10.89369         5.89123
   S       10.57777        10.43233         4.51304
   C       12.93980        10.72921         5.85877
   N       13.54852        10.24237         4.74593
   C       14.85166         9.95941         4.54137
   S       16.02066        10.04010         5.81756
   C       17.24029         9.50109         4.70088
   N       18.53403         9.37209         5.19323
   O       19.40608         8.99617         4.42703
   O       18.70078         9.64902         6.37416
   C       16.76517         9.28057         3.43311
   C       15.39126         9.54419         3.30886
   C       14.60563         9.47971         2.10522
   C       15.04339         9.00194         0.92242
   C       14.35237         8.99158        -0.32667
   S       15.28992         8.50260        -1.70921
   C       13.97118         8.78952        -2.79498
   C       12.86580         9.25085        -2.10858
   C       13.06903         9.34469        -0.71516
   C       11.98661         9.78208         0.22976
   C       10.62186         9.93060        -0.45345
   C        9.91314         8.58410        -0.54505
   F       10.67857         7.56936        -0.95043
   F        9.40891         8.21588         0.64680
   F        8.85960         8.62614        -1.38713
   C       10.77653        10.57713        -1.83039
   C       11.59030         9.68352        -2.76229
   C       14.19709         8.53766        -4.19439
   C       13.27990         8.35285        -5.14119
   H        3.60736        16.30222        -2.06554
   H        2.99677        15.57623         0.86554
   H        4.62224        16.16527         0.53132
   H        4.29131        14.74771         2.66739
   H        2.83029        13.05867         1.60226
   H        4.23061        12.31177         2.38713
   H        3.68717        11.37063         0.09964
   H        5.34248        11.94406         0.28631
   H        3.72245        11.47171        -3.88835
   H        5.19033        10.47882        -1.38277
   H        4.62092         9.23835        -3.99143
   H        6.90243         6.31624        -0.10807
   H        4.11958         8.85322        -0.16153
   H        6.87253         8.57905         1.15439
   H        4.19287         9.63507         2.24840
   H        4.54649        10.78286         4.62465
   H        6.45421        11.49439         6.20277
   H        8.67324        11.76760         7.30403
   H       11.19015        11.74748         7.85601
   H       13.56653        10.97974         6.70002
   H       12.92517        10.04785         3.96858
   H       17.40900         8.95527         2.63730
   H       13.60936         9.88534         2.17324
   H       16.04759         8.60460         0.86624
   H       12.25358        10.75381         0.65628
   H       11.90158         9.06339         1.05015
   H        9.97113        10.54837         0.17602
   H       11.28781        11.53189        -1.69588
   H        9.79615        10.77512        -2.26661
   H       11.82229        10.22779        -3.68060
   H       11.00144         8.80587        -3.04258
   H       15.24486         8.46747        -4.46077
   H       12.22396         8.34897        -4.94649
   H       13.57640         8.16277        -6.15806
*
