# ORCA input file
# SCF done       -194.987874563205          0.000496538451
! CAM-B3LYP def2-SVP def2/J RIJCOSX Grid4 TightSCF
%maxcore 5000
%tddft
    Mode sTDDFT
    Ethresh 5.0
    maxcore 5000
end

%pal
  nprocs 6
  end
* xyz 0 1
   C       -2.29703        -0.78360        -1.67773
   C       -2.00303        -1.81307        -0.81669
   C       -0.90261        -2.67908        -0.96332
   N       -0.02194        -3.41297        -1.03551
   C       -2.76257        -2.12294         0.32803
   N       -3.34820        -2.40788         1.27416
   C       -1.52420        -0.41459        -2.86260
   C       -2.12987         0.71465        -3.47229
   C       -1.63602         1.29486        -4.61466
   C       -0.48924         0.73333        -5.18785
   C        0.10819        -0.39126        -4.57349
   C       -0.39084        -0.97723        -3.41457
   S        1.51077        -0.92674        -5.44718
   C        1.27716         0.34959        -6.61205
   C        0.20569         1.13832        -6.36018
  Br        2.47044         0.52214        -8.04946
   C       -3.31408         1.09253        -2.69060
   O       -4.08712         2.02365        -2.91167
   C       -3.40320         0.13446        -1.59043
   C       -4.44580         0.17083        -0.68852
   N       -5.39060         1.10920        -0.80597
   C       -6.51106         1.25452        -0.06436
   S       -6.89548         0.16374         1.23079
   C       -8.37882         1.03648         1.47952
   N       -9.19076         0.60037         2.52593
   O      -10.20160         1.23795         2.77909
   O       -8.82341        -0.38870         3.13874
   C       -8.56679         2.08363         0.61738
   C       -7.49273         2.24236        -0.28505
   C       -7.37483         3.24491        -1.29122
   C       -8.38906         4.03629        -1.74497
   C       -8.21078         4.96501        -2.78183
   C       -9.23323         5.62038        -3.42897
   C       -9.12133         6.49967        -4.53233
   C      -10.31720         6.89812        -5.05743
   C      -11.43602         6.35770        -4.39558
   S      -10.92398         5.36553        -3.04486
   C      -12.78056         6.44475        -4.71766
   C      -13.41659         7.05738        -5.81622
   C      -14.76006         6.81715        -5.87433
   C      -15.25883         6.00753        -4.82651
   S      -13.95167         5.60725        -3.72958
   C      -16.53917         5.51636        -4.69076
   C      -16.99115         4.67456        -3.66729
   S      -15.99755         4.32530        -2.27799
   C      -17.19097         3.25030        -1.61052
   C      -18.30997         3.18381        -2.43907
   C      -18.20598         3.98219        -3.57815
   C      -19.29422         4.06144        -4.60196
   C      -20.25465         2.88569        -4.45595
   C      -20.70520         2.73690        -3.00348
   O      -21.73480         1.76844        -2.98208
   C      -22.44589         1.68402        -1.77400
   C      -19.50525         2.33666        -2.13326
   C      -16.90311         2.57576        -0.39953
   C      -15.81951         2.91394         0.34673
   C      -15.33081         2.28876         1.51296
   S      -15.90630         0.74785         2.08646
   C      -14.74150         0.74326         3.38040
   C      -13.97594         1.89474         3.36695
   C      -14.30121         2.76384         2.31536
   C      -13.64556         4.09050         2.09118
   C      -12.62475         4.47388         3.17078
   C      -11.19920         4.25177         2.68459
   O      -10.88215         4.02182         1.54567
   O      -10.32772         4.46192         3.67177
   C       -8.94438         4.37149         3.37018
   C      -12.88852         3.77857         4.50885
   C      -12.90737         2.26077         4.34293
   C      -14.64638        -0.36147         4.28907
   C      -15.42513        -1.44183         4.25870
   H       -2.11900         2.15232        -5.05642
   H        0.09986        -1.83508        -2.98630
   H       -0.08437         1.97079        -6.97497
   H       -4.54630        -0.54431         0.11696
   H       -5.23409         1.75414        -1.60315
   H       -9.43758         2.71606         0.66051
   H       -6.40720         3.35686        -1.76323
   H       -9.38501         3.92753        -1.33739
   H       -7.20595         5.13939        -3.14468
   H       -8.16082         6.79493        -4.91662
   H      -10.42004         7.55078        -5.90620
   H      -12.87298         7.63390        -6.54337
   H      -15.40664         7.18520        -6.65195
   H      -17.24690         5.77380        -5.46742
   H      -18.86712         4.06606        -5.60693
   H      -19.83960         5.00267        -4.47186
   H      -19.76649         1.95950        -4.76205
   H      -21.13180         3.02826        -5.08720
   H      -21.10467         3.70225        -2.64460
   H      -23.28640         1.01842        -1.96207
   H      -22.82315         2.66745        -1.46602
   H      -21.83649         1.26919        -0.96347
   H      -19.27247         1.28553        -2.33416
   H      -19.75437         2.42579        -1.07344
   H      -17.55880         1.77545        -0.08702
   H      -15.23062         3.75919         0.01169
   H      -14.42384         4.85632         2.03638
   H      -13.12992         4.07687         1.12535
   H      -12.68099         5.55762         3.33588
   H       -8.43053         5.04956         4.04882
   H       -8.76101         4.65455         2.33155
   H       -8.59929         3.35001         3.53587
   H      -13.85721         4.11225         4.88977
   H      -12.11945         4.06675         5.22496
   H      -13.08050         1.78415         5.30842
   H      -11.94246         1.91849         3.96053
   H      -13.86395        -0.28048         5.03138
   H      -16.20565        -1.55169         3.52370
   H      -15.30300        -2.24527         4.96269
*
