# ORCA input file
# SCF done       -216.531932247236          0.000516538534
! CAM-B3LYP def2-SVP def2/J RIJCOSX Grid4 TightSCF
%maxcore 5000
%tddft
    Mode sTDDFT
    Ethresh 5.0
    maxcore 5000
end

%pal
  nprocs 6
  end
* xyz 0 1
   C      -11.00801         7.23370        -3.13809
   C       -9.85495         7.86949        -3.52268
   C       -9.81907         9.10409        -4.20298
   N       -9.72496        10.10010        -4.76575
   C       -8.55283         7.38184        -3.29283
   N       -7.46868         7.04072        -3.12614
   C      -12.36835         7.72601        -3.33991
   C      -13.28770         6.77496        -2.82375
   C      -14.64810         6.96007        -2.86803
   C      -15.12787         8.13761        -3.45159
   C      -14.20453         9.08029        -3.96404
   C      -12.82780         8.89431        -3.91683
   S      -15.01100        10.46039        -4.64268
   C      -16.55645         9.76333        -4.23571
   C      -16.47459         8.55822        -3.62205
  Br      -18.13028        10.68978        -4.66011
   C      -12.53671         5.63441        -2.28108
   O      -12.98017         4.62152        -1.75570
   C      -11.11944         5.94834        -2.48951
   C      -10.12347         5.08220        -2.12046
   N      -10.40367         3.89209        -1.57167
   C       -9.49211         2.90988        -1.29654
   S       -9.79568         1.79940         0.00029
   C       -8.25011         1.07225        -0.29036
   N       -7.87495        -0.01536         0.51332
   O       -6.78568        -0.51524         0.31207
   O       -8.67667        -0.37411         1.35673
   C       -7.55560         1.64933        -1.32065
   C       -8.26366         2.70358        -1.92685
   C       -7.83942         3.44168        -3.09692
   C       -6.56956         3.75459        -3.38958
   C       -6.14944         4.58691        -4.49637
   C       -4.85404         5.12097        -4.46718
   C       -4.46020         6.00486        -5.44112
   C       -5.34052         6.36750        -6.47388
   C       -6.61198         5.81593        -6.53530
   C       -7.00375         4.93316        -5.55043
   C       -4.67385         7.32159        -7.33351
   C       -3.37579         7.53605        -6.83875
   C       -3.14466         6.73191        -5.58159
   C       -2.89737         7.65625        -4.37292
   C       -4.05057         8.61921        -4.11507
   C       -1.96484         5.75622        -5.73854
   C       -2.13429         4.81285        -6.92330
   C       -2.51368         8.38255        -7.48996
   C       -2.94096         9.05851        -8.64380
   C       -4.24432         8.84952        -9.11383
   C       -5.10767         7.98445        -8.47312
   C       -2.00021         9.92877        -9.30755
   C       -2.26741        10.79777       -10.29553
   N       -1.27409        11.55738       -10.86840
   C       -1.40106        12.42139       -11.88675
   S       -2.93717        12.75252       -12.61237
   C       -2.14909        13.77858       -13.78066
   N       -2.96196        14.41817       -14.71734
   O       -2.42688        15.14305       -15.53659
   O       -4.16067        14.19994       -14.63764
   C       -0.79285        13.84322       -13.62479
   C       -0.33262        13.08640       -12.53077
   C        1.02249        12.94938       -12.10736
   C        2.11781        13.20405       -12.86835
   C        3.46208        13.05997       -12.45257
   C        4.03352        12.41176       -11.39011
   C        3.56875        11.46514       -10.40660
   C        2.55250        10.54639       -10.54063
   C        2.07266         9.72506        -9.50458
   N        1.55065         9.10025        -8.69281
   C        1.84362        10.32116       -11.73496
   N        1.22308        10.08830       -12.67313
   C        4.51452        11.48075        -9.29424
   C        5.64764        12.24277        -9.67194
   C        5.42619        12.79575       -11.02351
   O        6.19200        13.45684       -11.68574
   C        6.73993        12.39605        -8.85447
   C        6.70873        11.77530        -7.60034
   C        5.56764        11.02553        -7.22788
   C        4.46594        10.86343        -8.05897
   S        5.73893        10.34811        -5.63711
   C        7.32175        11.06572        -5.49723
   C        7.70259        11.77882        -6.58410
  Br        8.31930        10.80530        -3.93053
   H      -15.32234         6.21982        -2.46682
   H      -12.16540         9.64217        -4.31966
   H      -17.32821         7.98862        -3.30311
   H       -9.07943         5.33229        -2.24773
   H      -11.40134         3.74277        -1.36070
   H       -6.59191         1.29771        -1.64083
   H       -8.64142         3.77323        -3.74273
   H       -5.78651         3.45427        -2.70557
   H       -4.18670         4.85257        -3.66101
   H       -7.28827         6.07805        -7.33546
   H       -7.99207         4.50120        -5.60080
   H       -1.98141         8.22349        -4.55193
   H       -2.74009         7.03729        -3.48734
   H       -4.22745         9.25018        -4.98355
   H       -3.81734         9.25972        -3.26754
   H       -4.96690         8.07717        -3.89255
   H       -1.86929         5.17245        -4.82064
   H       -1.04706         6.33384        -5.86425
   H       -3.03940         4.21887        -6.81570
   H       -1.28439         4.13754        -6.98818
   H       -2.20007         5.37275        -7.85350
   H       -1.50824         8.53927        -7.12728
   H       -4.57592         9.35746       -10.00586
   H       -6.10448         7.82601        -8.85622
   H       -0.97804         9.85501        -8.95342
   H       -3.25436        10.96224       -10.69820
   H       -0.33696        11.37603       -10.53052
   H       -0.17077        14.44314       -14.26315
   H        1.17097        12.64712       -11.07848
   H        1.97565        13.58204       -13.87068
   H        4.18874        13.60632       -13.04848
   H        7.59450        12.97203        -9.17258
   H        3.61945        10.28354        -7.72998
   H        8.64589        12.28677        -6.66741
*
