# ORCA input file
# SCF done       -233.186145539155          0.002613958780
! CAM-B3LYP def2-SVP def2/J RIJCOSX Grid4 TightSCF
%maxcore 5000
%tddft
    Mode sTDDFT
    Ethresh 5.0
    maxcore 5000
end

%pal
  nprocs 6
  end
* xyz 0 1
   C       -2.05169         4.03153         1.87243
   C       -1.35447         3.72730         3.01086
   C       -0.01232         3.28959         3.01845
   N        1.08316         2.95961         3.10727
   C       -1.82212         3.84285         4.33839
   N       -2.09528         3.90906         5.45140
   C       -1.53494         3.91948         0.51410
   C       -2.52582         4.38223        -0.38913
   C       -2.33245         4.42451        -1.75040
   C       -1.09109         4.01078        -2.24218
   C       -0.10428         3.55167        -1.33422
   C       -0.31152         3.48652         0.03838
   S        1.36795         3.14376        -2.14700
   C        0.66144         3.59938        -3.67030
   C       -0.62285         4.02593        -3.58146
  Br        1.67707         3.47831        -5.23840
   C       -3.69429         4.83616         0.36956
   O       -4.69634         5.35698        -0.09327
   C       -3.40164         4.56787         1.78526
   C       -4.25328         4.74987         2.84072
   C       -5.54943         5.30818         2.87131
   S       -6.35193         6.07635         1.53795
   C       -7.70721         6.53513         2.52405
   C       -7.53696         6.09463         3.84550
   C       -6.34572         5.38668         4.02658
   C       -5.90789         4.70716         5.29655
   F       -5.48000         3.45148         5.05189
   F       -4.88127         5.35337         5.87391
   F       -6.85987         4.58126         6.21424
   C       -8.48257         6.40986         4.97200
   F       -9.35625         7.38469         4.67386
   F       -9.22863         5.35233         5.33158
   F       -7.83614         6.84381         6.06290
   C       -8.80213         7.20740         1.93842
   C       -8.76473         7.71575         0.66711
   C       -9.84280         8.37497         0.06918
   C       -9.80076         8.94585        -1.18455
   C      -10.86277         9.61789        -1.83902
   C      -10.54175        10.09576        -3.07315
   C       -9.20496         9.82902        -3.45226
   S       -8.37399         8.94501        -2.20068
   C       -8.57740        10.19304        -4.63359
   C       -9.13650        10.86455        -5.74288
   C       -8.25740        11.05860        -6.76514
   C       -6.95619        10.55264        -6.51685
   S       -6.88989         9.82980        -4.92614
   C       -5.91013        10.59207        -7.41250
   C       -4.62057        10.08531        -7.20551
   S       -4.10140         9.47213        -5.67224
   C       -2.51422         9.06867        -6.27214
   C       -2.40405         9.42462        -7.61793
   C       -3.57774         9.98365        -8.14265
   C       -3.82729        10.41629        -9.55617
   F       -4.93567         9.82867       -10.05628
   F       -4.05728        11.74371        -9.63405
   F       -2.85384        10.14641       -10.41704
   C       -1.14334         9.27656        -8.42530
   F       -0.08207         8.91388        -7.69063
   F       -1.25810         8.34789        -9.38549
   F       -0.79037        10.42878        -9.01271
   C       -1.61644         8.40649        -5.39989
   C       -1.87862         8.29161        -4.06820
   C       -1.09670         7.55894        -3.15491
   C       -1.41484         7.31703        -1.84707
   C       -2.61430         7.62453        -1.09836
   C       -3.89182         7.73570        -1.59076
   C       -4.98704         8.20185        -0.84412
   N       -5.89895         8.66299        -0.31929
   C       -4.28525         7.30106        -2.87240
   N       -4.67382         6.87658        -3.86617
   C       -2.26889         7.57696         0.31527
   C       -0.95204         7.06474         0.44732
   C       -0.38824         6.82803        -0.89637
   O        0.68428         6.33753        -1.17596
   C       -0.38209         6.80596         1.67014
   C       -1.14570         7.05998         2.81642
   C       -2.46055         7.56927         2.67316
   C       -3.03460         7.83586         1.43752
   S       -3.23820         7.77082         4.21470
   C       -1.80799         7.18533         5.02328
   C       -0.79936         6.85369         4.17806
  Br       -1.78124         7.07768         6.88375
   H       -3.10801         4.77273        -2.41569
   H        0.47185         3.12892         0.68501
   H       -1.21278         4.34772        -4.42032
   H       -3.87858         4.42504         3.80163
   H       -9.70746         7.32653         2.51403
   H       -7.84690         7.63836         0.09764
   H      -10.77123         8.45660         0.62013
   H      -11.82798         9.72559        -1.37680
   H      -11.22091        10.63218        -3.71048
   H      -10.16489        11.17590        -5.76538
   H       -8.49983        11.54275        -7.69412
   H       -6.12457        11.04313        -8.37058
   H       -0.73322         7.94267        -5.81160
   H       -2.74355         8.81285        -3.68087
   H       -0.13011         7.19557        -3.48509
   H        0.61682         6.40419         1.74406
   H       -4.03801         8.22291         1.37315
   H        0.15238         6.47671         4.50677
*
