# ORCA input file
# SCF done       -177.463814424199          0.000417784867
! CAM-B3LYP def2-SVP def2/J RIJCOSX Grid4 TightSCF
%maxcore 5000
%tddft
    Mode sTDDFT
    Ethresh 5.0
    maxcore 5000
end

%pal
  nprocs 6
  end
* xyz 0 1
   C        8.16260        -3.69493         5.42311
   C        7.19304        -3.91791         4.52712
   C        6.45262        -2.94568         3.77196
   C        5.52334        -3.46866         2.94513
   C        5.44815        -4.89212         2.97288
   S        6.62434        -5.53956         4.09894
   C        4.59742        -5.69150         2.25457
   C        3.57805        -5.29719         1.34940
   C        2.88753        -6.32629         0.80266
   C        3.32708        -7.61187         1.22727
   S        4.65313        -7.44126         2.37293
   C        2.84615        -8.81637         0.82170
   N        3.34169       -10.00745         1.28129
   C        3.10531       -11.23980         0.77669
   S        3.20260       -12.59521         1.87018
   C        2.64931       -13.65152         0.60409
   N        2.53269       -15.00921         0.89224
   O        2.14076       -15.74843         0.00400
   O        2.83187       -15.35974         2.02439
   C        2.41169       -12.99558        -0.57345
   C        2.69880       -11.61859        -0.51666
   C        2.67848       -10.81966        -1.71231
   C        3.38743        -9.69428        -1.93542
   C        3.33527        -8.93240        -3.13564
   C        3.88767        -7.66897        -3.30673
   C        4.58193        -7.04081        -2.26254
   N        5.14581        -6.58790        -1.37148
   C        3.66498        -7.14717        -4.61033
   C        2.96397        -8.05210        -5.39825
   S        2.53352        -9.50558        -4.58095
   S        2.68993        -7.54846        -7.03556
   C        3.53065        -6.07931        -6.66125
   C        3.98050        -5.97207        -5.35172
   C        4.61501        -4.71858        -5.11815
   C        4.95522        -4.24040        -3.84591
   N        5.15587        -3.80892        -2.80135
   C        4.67619        -3.93820        -6.26558
   S        3.90060        -4.70973        -7.63607
   C        5.28984        -2.67260        -6.45519
   S        4.78781        -1.65603        -7.79272
   C        6.33061        -2.05921        -5.78709
   S        7.38263        -2.45588        -4.46929
   C        8.21084        -0.93559        -4.77014
   N        7.77840        -0.21214        -5.72872
   C        6.72194        -0.80499        -6.34726
   C        5.97490        -0.43137        -7.45738
   C        6.09828         0.71542        -8.27692
   C        7.05115         1.65820        -8.07848
   C        7.22941         2.80386        -8.89434
   S        6.18053         3.16498       -10.23353
   C        7.07593         4.59926       -10.63308
   C        8.12519         4.78318        -9.75260
   C        8.21379         3.77164        -8.77875
   C        9.25674         3.76366        -7.70163
   C       10.39372         4.73291        -8.03920
   N       11.23642         4.85686        -6.81502
   O       11.99899         3.95437        -6.59835
   O       11.04906         5.82039        -6.11495
   C        9.81265         6.07601        -8.44724
   N       10.88585         7.09187        -8.64600
   O       10.53250         8.23966        -8.68709
   O       12.00906         6.68257        -8.80218
   C        9.08137         5.93638        -9.78706
   C        6.61950         5.36839       -11.76012
   C        7.29250         6.29396       -12.44111
   H        8.47630        -2.69231         5.65466
   H        8.65551        -4.50028         5.93614
   H        6.65507        -1.89552         3.88673
   H        4.88470        -2.88931         2.30278
   H        3.39413        -4.26233         1.12685
   H        2.08589        -6.21981         0.09417
   H        2.04087        -8.87240         0.10722
   H        3.89404        -9.95619         2.13053
   H        2.08189       -13.50793        -1.45947
   H        2.07648       -11.22164        -2.51824
   H        4.04304        -9.28740        -1.17870
   H        9.04131        -0.65650        -4.15139
   H        5.39929         0.80836        -9.09747
   H        7.73242         1.53018        -7.24961
   H        9.66177         2.75859        -7.56830
   H        8.79460         4.06420        -6.75411
   H       11.03285         4.31946        -8.82544
   H        9.13889         6.46885        -7.67965
   H        9.82078         5.77085       -10.57902
   H        8.54594         6.86221       -10.00862
   H        5.61534         5.11607       -12.07762
   H        8.30866         6.56841       -12.22821
   H        6.83215         6.79776       -13.27276
*
