# ORCA input file
# SCF done       -155.400559266718          0.000550456174
! CAM-B3LYP def2-SVP def2/J RIJCOSX Grid4 TightSCF
%maxcore 5000
%tddft
    Mode sTDDFT
    Ethresh 5.0
    maxcore 5000
end

%pal
  nprocs 6
  end
* xyz 0 1
   C        5.03702       -13.80978        -5.81152
   C        5.41238       -12.58490        -5.41938
   C        6.13198       -11.60728        -6.18849
   C        6.34872       -10.44036        -5.54591
   C        5.82311       -10.38719        -4.22292
   S        5.05002       -11.91115        -3.81626
   C        5.84067        -9.31753        -3.36781
   C        6.31291        -8.00430        -3.63999
   C        6.04856        -7.10865        -2.66160
   C        5.34139        -7.64825        -1.54324
   S        5.15581        -9.38921        -1.75263
   C        4.88201        -6.89660        -0.51012
   N        4.09623        -7.25350         0.55796
   C        3.25061        -8.31001         0.73812
   S        3.05719        -8.87507         2.37592
   C        1.90121       -10.04520         1.82983
   N        1.29416       -10.86069         2.78386
   O        0.47977       -11.68113         2.39558
   O        1.62592       -10.68985         3.94755
   C        1.69452        -9.99947         0.47717
   C        2.44352        -9.00023        -0.17260
   C        2.35107        -8.71245        -1.58504
   C        1.88795        -9.58544        -2.49787
   C        1.97285        -9.36162        -3.91032
   C        1.68168       -10.28169        -4.84312
   C        1.14075       -11.64329        -4.52021
   C        1.92929       -10.02081        -6.30064
   N        2.76414       -11.07512        -6.83137
   C        3.06419       -11.21626        -8.14872
   C        2.53106       -10.53751        -9.18319
   C        2.89562       -10.87257       -10.52657
   C        2.40135       -10.36919       -11.66694
   C        1.32336        -9.32737       -11.74837
   C        2.87123       -10.90459       -12.99827
   N        1.82365       -11.64370       -13.68477
   C        1.41375       -12.86707       -13.34631
   C        1.95368       -13.65755       -12.36716
   C        1.45445       -14.93764       -12.12002
   C        1.90064       -15.78619       -11.12903
   C        1.40880       -17.11514       -10.85920
   C        0.42829       -17.80035       -11.53787
   C        0.00505       -19.10478       -11.21634
   N       -0.38723       -20.16491       -11.01028
   C       -0.29575       -17.31927       -12.64568
   N       -0.93119       -17.00733       -13.55167
   C        2.15048       -17.63981        -9.71371
   C        3.07797       -16.65875        -9.29030
   C        2.95807       -15.46650       -10.15981
   O        3.61840       -14.44679       -10.05620
   C        3.92797       -16.85489        -8.23111
   C        3.86057       -18.07607        -7.55214
   C        2.93180       -19.04992        -7.98300
   C        2.07172       -18.85297        -9.05712
   S        3.01596       -20.48807        -7.00884
   C        4.28215       -19.76787        -6.05081
   C        4.62458       -18.51626        -6.43625
  Br        5.03238       -20.73575        -4.62782
   H        5.27315       -14.15206        -6.80338
   H        4.49249       -14.47497        -5.16699
   H        6.44842       -11.82582        -7.19271
   H        6.87026        -9.60290        -5.97355
   H        6.80628        -7.76204        -4.56372
   H        6.30076        -6.06388        -2.70458
   H        5.18307        -5.85682        -0.48493
   H        4.24888        -6.70388         1.39404
   H        0.98636       -10.64496        -0.00827
   H        2.71802        -7.74737        -1.90608
   H        1.53446       -10.55233        -2.17707
   H        2.36202        -8.39939        -4.22043
   H        0.22313       -11.56561        -3.93964
   H        1.85882       -12.21662        -3.93467
   H        0.92832       -12.19173        -5.43366
   H        2.39003        -9.03201        -6.44548
   H        0.97709       -10.03327        -6.84677
   H        3.39296       -11.50263        -6.17145
   H        3.76844       -12.01293        -8.34861
   H        1.80744        -9.75584        -9.01623
   H        3.66388       -11.63274       -10.59474
   H        1.31568        -8.70224       -10.86073
   H        0.33947        -9.79204       -11.83946
   H        1.47529        -8.68593       -12.61607
   H        3.72723       -11.56809       -12.85765
   H        3.17010       -10.08566       -13.65955
   H        1.26614       -11.12597       -14.34566
   H        0.58471       -13.25186       -13.92998
   H        2.75729       -13.29912       -11.74955
   H        0.64969       -15.27958       -12.75795
   H        4.63060       -16.09296        -7.93415
   H        1.38246       -19.62826        -9.34628
   H        5.38425       -17.92707        -5.95552
*
