# ORCA input file
# SCF done       -178.990271431538          0.000687770673
! CAM-B3LYP def2-SVP def2/J RIJCOSX Grid4 TightSCF
%maxcore 5000
%tddft
    Mode sTDDFT
    Ethresh 5.0
    maxcore 5000
end

%pal
  nprocs 6
  end
* xyz 0 1
   C       13.94410       -16.72953         7.22084
   C       14.00711       -15.52416         6.63687
   C       15.14680       -14.66123         6.52191
   C       14.90146       -13.49865         5.87568
   C       13.55905       -13.34793         5.43158
   S       12.61219       -14.75127         5.86594
   C       13.01889       -12.27106         4.75853
   C       13.67567       -11.08367         4.35675
   C       12.87258       -10.18863         3.71738
   C       11.53051       -10.60784         3.57503
   S       11.33895       -12.20937         4.28589
   C       10.40371       -10.02606         3.03721
   C       10.14293        -8.78748         2.42310
   C        8.77807        -8.52416         2.07297
   C        8.35017        -7.27652         1.48983
   N        7.06245        -7.12306         1.12649
   C        6.20227        -8.07970         1.36455
   C        6.61281        -9.28855         2.00902
   N        7.87603        -9.47833         2.32179
   C        5.66739       -10.29798         2.30274
   N        4.87004       -11.08955         2.53139
   C        4.85249        -7.89081         0.97571
   N        3.75237        -7.74511         0.69023
   C        9.24381        -6.21780         1.23849
   C       10.59584        -6.48787         1.52153
   C       11.04528        -7.73701         2.10607
   N       12.36182        -7.73296         2.29168
   S       12.97644        -6.32571         1.80480
   N       11.60825        -5.63914         1.32933
   C        8.79159        -4.93771         0.72217
   C        7.55166        -4.41604         1.12068
   C        7.12321        -3.22156         0.60215
   C        7.91473        -2.50807        -0.31554
   C        9.15076        -3.00909        -0.70334
   C        9.57943        -4.21190        -0.18130
   C        7.21552        -1.29677        -0.67832
   C        5.98974        -1.26320         0.01244
   C        5.83146        -2.49089         0.87782
   C        4.61638        -3.33502         0.44735
   C        4.68402        -3.77375        -1.00999
   C        5.69836        -2.11742         2.36537
   C        6.87097        -1.28675         2.87312
   C        5.13221        -0.20455        -0.14145
   C        5.47558         0.86013        -0.99357
   C        6.69829         0.80618        -1.68108
   C        7.56396        -0.25631        -1.53057
   C        4.55940         1.96215        -1.10690
   C        4.69663         3.06787        -1.87104
   C        3.74868         4.12012        -1.90930
   S        2.28512         4.13217        -0.96225
   C        1.77340         5.67811        -1.59926
   C        2.73821         6.15859        -2.47792
   C        3.82658         5.28467        -2.65836
   O        4.85420         5.57209        -3.49034
   O        2.73631         7.38107        -3.11716
   C        3.10749         8.46593        -2.28349
   C        0.52836         6.18449        -1.18064
   C       -0.23652         7.17734        -1.73546
   C       -1.49558         7.58947        -1.21604
   C       -2.12112         8.54784        -1.94458
   C       -1.39612         8.95435        -3.09275
   S        0.11524         8.06938        -3.20467
   C       -1.75586         9.90263        -4.01966
   C       -2.95093        10.67499        -4.04882
   C       -3.03415        11.53645        -5.08633
   C       -1.90229        11.51396        -5.96823
   S       -0.73227        10.32082        -5.38023
   C       -1.70667        12.25106        -7.07002
   H       14.81496       -17.16397         7.67924
   H       13.03143       -17.29583         7.25091
   H       16.09883       -14.95063         6.93015
   H       15.63888       -12.73551         5.70054
   H       14.72096       -10.91971         4.54931
   H       13.19367        -9.23707         3.33742
   H        9.50800       -10.63293         3.11648
   H        6.95284        -4.94513         1.84436
   H        9.76663        -2.47170        -1.40915
   H       10.53025        -4.61891        -0.48621
   H        3.70911        -2.74902         0.60904
   H        4.56154        -4.22082         1.08319
   H        4.72381        -2.91132        -1.67245
   H        3.80567        -4.36380        -1.25974
   H        5.56637        -4.38516        -1.18416
   H        5.62414        -3.03671         2.95002
   H        4.77043        -1.55866         2.50425
   H        7.80519        -1.83278         2.76044
   H        6.73469        -1.05008         3.92611
   H        6.95007        -0.35457         2.31785
   H        4.19100        -0.17260         0.38892
   H        6.97059         1.61654        -2.33930
   H        8.50159        -0.27666        -2.06625
   H        3.66356         1.88789        -0.50012
   H        5.55406         3.21907        -2.51108
   H        4.63195         6.39984        -3.94338
   H        3.02391         9.35781        -2.90113
   H        4.13705         8.35413        -1.92490
   H        2.43820         8.55446        -1.42310
   H        0.09194         5.67264        -0.33167
   H       -1.88974         7.15432        -0.31432
   H       -3.07552         8.97364        -1.69155
   H       -3.70907        10.55986        -3.29440
   H       -3.86039        12.19964        -5.27189
   H       -2.44488        12.96471        -7.39089
   H       -0.81672        12.15509        -7.66438
*
