# ORCA input file
# SCF done       -137.182827688483          0.000386838252
! CAM-B3LYP def2-SVP def2/J RIJCOSX Grid4 TightSCF
%maxcore 5000
%tddft
    Mode sTDDFT
    Ethresh 5.0
    maxcore 5000
end

%pal
  nprocs 6
  end
* xyz 0 1
   C        1.64426        -3.06931         4.34609
   S        0.40719        -2.70270         3.23436
   C       -0.07168        -4.36478         3.08146
   C        0.73131        -5.17857         3.88860
   C        1.71801        -4.41816         4.61375
   C        2.62309        -5.07070         5.47947
   C        2.55905        -6.43141         5.62025
   C        3.45813        -7.10323         6.48058
   N        4.19443        -7.63091         7.18223
   C        1.58319        -7.19167         4.89506
   C        1.54398        -8.59492         5.05366
   N        1.49746        -9.73432         5.17027
   C        0.69194        -6.57513         4.05074
   C       -1.14517        -4.68745         2.20908
   S       -1.80332        -6.29852         2.03779
   C       -2.96295        -5.77403         0.84968
   C       -2.85364        -4.39752         0.63563
   C       -1.82159        -3.81228         1.39203
   C       -3.77505        -3.58873        -0.14761
   O       -3.56770        -2.45313        -0.50128
   C       -3.78856        -6.74225         0.23652
   C       -4.34438        -6.61320        -1.00164
   C       -5.19030        -7.54717        -1.63383
   S       -5.28819        -7.52521        -3.36294
   C       -6.33509        -8.90819        -3.43729
   C       -6.62379        -9.36752        -2.13525
   C       -5.99560        -8.58321        -1.11896
   C       -6.27473        -8.86035         0.22607
   C       -7.04824        -9.94156         0.59103
   C       -7.24553       -10.15971         2.02661
   C       -7.19181       -11.32167         2.66167
   C       -7.62012       -10.76561        -0.41667
   C       -8.49790       -11.93097        -0.07727
   C       -7.41476       -10.45930        -1.73927
   C       -6.69608        -9.34048        -4.73293
   C       -7.62241       -10.26762        -5.09369
   C       -7.87636       -10.65417        -6.43350
   C       -7.26743       -10.26643        -7.61401
   C       -7.78254       -10.89378        -8.74392
   C       -8.80301       -11.78500        -8.46828
   S       -9.12759       -11.82301        -6.75714
   C       -9.57044       -12.58150        -9.36071
   S      -11.16993       -13.08345        -8.91772
   C      -11.42692       -13.87885       -10.40243
   C      -10.33140       -13.79236       -11.23279
   C       -9.24575       -13.05581       -10.63637
   C       -8.02534       -12.95601       -11.32809
   C       -7.90144       -13.50956       -12.57938
   C       -6.67321       -13.41386       -13.27056
   N       -5.66757       -13.32151       -13.81289
   C       -9.00181       -14.19410       -13.19379
   C       -8.84106       -14.73316       -14.49126
   N       -8.72830       -15.17496       -15.54243
   C      -10.18862       -14.34115       -12.52641
   H        2.25557        -2.28631         4.74757
   H        3.35798        -4.49422         6.02077
   H       -0.02915        -7.17281         3.51620
   H       -1.60490        -2.75953         1.34164
   H       -4.73914        -4.08744        -0.36734
   H       -3.88566        -7.67932         0.76607
   H       -4.05103        -5.76731        -1.61072
   H       -5.88426        -8.21360         0.99565
   H       -7.38220        -9.25032         2.60044
   H       -6.99600       -12.25074         2.15608
   H       -7.30877       -11.37886         3.73055
   H       -9.04867       -11.75166         0.84265
   H       -7.89930       -12.83225         0.05432
   H       -9.20444       -12.11868        -0.88299
   H       -7.87564       -11.08380        -2.48562
   H       -6.16314        -8.83290        -5.52725
   H       -8.23435       -10.75391        -4.35136
   H       -6.47143        -9.54579        -7.65653
   H       -7.45053       -10.66957        -9.74100
   H      -12.35986       -14.36876       -10.59600
   H       -7.17490       -12.47216       -10.87489
   H      -11.01113       -14.87646       -12.97628
*
