# ORCA input file
# SCF done       -130.370374477506          0.000443187391
! CAM-B3LYP def2-SVP def2/J RIJCOSX Grid4 TightSCF
%maxcore 5000
%tddft
    Mode sTDDFT
    Ethresh 5.0
    maxcore 5000
end

%pal
  nprocs 6
  end
* xyz 0 1
   C       -5.41187        -1.10316         3.60269
   S       -3.87129        -1.17676         2.87175
   C       -4.34525        -2.44339         1.80549
   C       -5.66199        -2.82503         2.04852
   C       -6.28661        -2.02440         3.06962
   C       -7.65523        -2.21456         3.37288
   C       -8.36079        -3.17991         2.70716
   C       -9.74788        -3.36274         2.90292
   N      -10.87592        -3.53262         3.01785
   C       -7.70839        -4.04526         1.76351
   C       -8.46353        -5.03732         1.10239
   N       -9.07301        -5.81673         0.52150
   C       -6.38487        -3.87935         1.45429
   C       -3.50262        -2.96529         0.75202
   C       -4.08814        -3.28929        -0.46635
   C       -3.36209        -3.95691        -1.45619
   C       -2.00436        -4.17704        -1.18446
   N       -1.41752        -3.77921        -0.07256
   C       -2.12937        -3.20655         0.87716
   C       -4.08566        -4.46041        -2.59720
   S       -5.76769        -4.76251        -2.35178
   C       -5.99642        -5.43426        -3.92919
   C       -4.79644        -5.40045        -4.64531
   C       -3.71076        -4.84405        -3.88755
   C       -2.45576        -4.69182        -4.50610
   C       -2.24998        -5.10725        -5.79888
   C       -0.94290        -4.92320        -6.42739
   C        0.21740        -4.97731        -5.78704
   C       -3.32337        -5.69244        -6.54022
   C       -3.09393        -6.16906        -7.94185
   C       -4.55893        -5.81841        -5.96947
   C       -7.32676        -5.87552        -4.16429
   C       -7.90110        -6.59007        -5.15208
   C       -9.30082        -6.94964        -5.01892
   C      -10.19171        -6.10508        -4.35382
   C      -11.45932        -6.55693        -3.99581
   C      -11.82347        -7.82998        -4.46105
   N      -11.03722        -8.58490        -5.19820
   C       -9.80928        -8.17719        -5.45689
   C      -12.34899        -5.76575        -3.17701
   S      -14.05892        -5.98864        -3.27953
   C      -14.37858        -4.78020        -2.12294
   C      -13.22361        -4.20244        -1.64483
   C      -12.04163        -4.78067        -2.23705
   C      -10.78007        -4.32169        -1.80738
   C      -10.69686        -3.26452        -0.93704
   C       -9.43222        -2.73779        -0.60743
   N       -8.39312        -2.30408        -0.38393
   C      -11.87583        -2.66578        -0.38030
   C      -11.71719        -1.57763         0.50766
   N      -11.56986        -0.67734         1.20143
   C      -13.11313        -3.15142        -0.70556
   H       -5.60405        -0.37971         4.36947
   H       -8.13842        -1.58530         4.10478
   H       -5.90754        -4.55363         0.75993
   H       -5.11599        -3.01333        -0.65349
   H       -1.37128        -4.71373        -1.87587
   H       -1.59705        -2.94320         1.78151
   H       -1.65994        -4.19971        -3.97049
   H       -0.95030        -4.73697        -7.49272
   H        0.28347        -5.19536        -4.73422
   H        1.15166        -4.82247        -6.29884
   H       -2.23437        -6.83613        -7.98466
   H       -2.90174        -5.32762        -8.60800
   H       -3.96706        -6.70105        -8.31150
   H       -5.37365        -6.23581        -6.53976
   H       -7.97227        -5.61542        -3.33198
   H       -7.34630        -6.99631        -5.98254
   H       -9.90407        -5.08527        -4.15423
   H      -12.79665        -8.24356        -4.22897
   H       -9.19542        -8.86190        -6.02693
   H      -15.38969        -4.54368        -1.85851
   H       -9.87255        -4.80102        -2.13328
   H      -14.00358        -2.73266        -0.26186
*
