# ORCA input file
# SCF done       -200.163027704001          0.000498780625
! CAM-B3LYP def2-SVP def2/J RIJCOSX Grid4 TightSCF
%maxcore 5000
%tddft
    Mode sTDDFT
    Ethresh 5.0
    maxcore 5000
end

%pal
  nprocs 6
  end
* xyz 0 1
   C        0.55910        -3.38369         4.81007
   C        1.92694        -3.11323         4.78009
   C        2.64974        -2.47889         5.90590
   O        3.85993        -2.50617         5.99072
   C        1.82742        -1.76639         6.91693
   C        0.89658        -0.82125         6.60337
   S        0.25142        -0.04243         7.99311
   C        1.24133        -0.98938         9.02064
   C        2.02696        -1.86613         8.33179
   C        2.94469        -2.81907         8.99929
   O        3.50577        -2.54958        10.03886
   C        3.11206        -4.11677         8.30039
   C        4.36402        -4.72362         8.29180
   C        4.55548        -5.90581         7.60220
   C        3.49670        -6.50012         6.93484
   C        2.23918        -5.91959         6.97092
   C        2.04526        -4.73045         7.64813
   C        2.66521        -3.49604         3.65856
   C        2.05655        -4.10167         2.58331
   C        0.68112        -4.36080         2.60339
   C       -0.04994        -4.00237         3.74078
   C        0.02558        -4.98404         1.47650
   S       -1.58576        -5.63296         1.63154
   C       -1.62078        -6.12449        -0.03328
   C       -0.42232        -5.78431        -0.66844
   C        0.49055        -5.15019         0.19962
   C       -0.09976        -6.02955        -2.06501
   O        0.94624        -5.73199        -2.58895
   C       -2.74982        -6.77374        -0.58921
   C       -3.85283        -7.09755         0.13535
   C       -5.04452        -7.75480        -0.25291
   N       -5.46547        -8.20062        -1.48945
   C       -4.83434        -8.02985        -2.77542
   C       -4.95463        -6.59664        -3.28777
   C       -6.72375        -8.82871        -1.41496
   O       -7.29693        -9.28967        -2.38497
   C       -7.08255        -8.77118        -0.01885
   C       -6.03932        -8.09999         0.65923
   C       -6.37175        -8.04491         2.06532
   O       -5.79365        -7.57594         3.02284
   N       -7.61368        -8.70651         2.14649
   C       -8.31233        -8.83335         3.40211
   C       -9.43874        -7.81108         3.53351
   C       -8.04960        -9.14208         0.91685
   C       -9.25806        -9.85007         0.71168
   C       -9.66224       -10.25981        -0.51782
   C      -10.85901       -10.97509        -0.76777
   S      -11.98175       -11.41539         0.48381
   C      -13.03232       -12.17259        -0.66454
   C      -14.24588       -12.82022        -0.24656
   O      -15.04686       -13.34566        -0.98653
   C      -12.51533       -12.10188        -1.95242
   C      -11.29973       -11.41589        -2.00320
   C      -13.21478       -12.67244        -3.11272
   C      -12.82035       -13.90575        -3.65097
   C      -11.70838       -14.64422        -3.01263
   O      -11.29740       -14.37578        -1.90048
   C      -11.07204       -15.72187        -3.80662
   C      -10.66312       -15.58588        -5.10091
   S       -9.79496       -16.95602        -5.66523
   C       -9.96783       -17.73052        -4.14570
   C      -10.66327       -16.97610        -3.24901
   C      -10.96263       -17.42772        -1.86749
   O      -10.17351       -18.09103        -1.22978
   C      -12.28543       -17.01762        -1.34161
   C      -12.41182       -16.73293         0.01503
   C      -13.62868       -16.32551         0.52735
   C      -14.73266       -16.22008        -0.30311
   C      -14.61815       -16.52252        -1.65014
   C      -13.40040       -16.91568        -2.17124
   C      -13.52711       -14.42804        -4.73360
   C      -14.58507       -13.73379        -5.28541
   C      -14.95270       -12.50245        -4.76578
   C      -14.27080       -11.97625        -3.68478
   H       -0.02916        -3.12061         5.67577
   H        0.58146        -0.50994         5.62662
   H        1.18636        -0.87433        10.08498
   H        5.17875        -4.24181         8.81021
   H        5.53272        -6.36446         7.58158
   H        3.64838        -7.42089         6.39107
   H        1.40890        -6.39109         6.46557
   H        1.05881        -4.29135         7.69435
   H        3.72685        -3.29958         3.65561
   H        2.64542        -4.39088         1.72749
   H       -1.10985        -4.21053         3.77335
   H        1.45197        -4.81905        -0.14837
   H       -0.90040        -6.52213        -2.64972
   H       -2.67927        -7.01152        -1.63810
   H       -3.85190        -6.84900         1.19109
   H       -5.36768        -8.70246        -3.45441
   H       -3.79155        -8.35339        -2.72297
   H       -6.00329        -6.33903        -3.41432
   H       -4.45733        -6.50584        -4.24967
   H       -4.50880        -5.88891        -2.59249
   H       -7.56486        -8.65713         4.18086
   H       -8.69715        -9.85165         3.50604
   H       -9.03443        -6.80385         3.46992
   H       -9.93049        -7.92800         4.49514
   H      -10.17654        -7.93931         2.74462
   H       -9.87446       -10.07481         1.57140
   H       -9.04907       -10.04399        -1.38391
   H      -14.40312       -12.79787         0.84966
   H      -10.73993       -11.25236        -2.90698
   H      -10.79051       -14.73698        -5.74392
   H       -9.56738       -18.71244        -3.98921
   H      -11.53985       -16.81814         0.64575
   H      -13.71766       -16.09094         1.57814
   H      -15.68321       -15.89901         0.09379
   H      -15.47973       -16.44172        -2.29531
   H      -13.32030       -17.17444        -3.21786
   H      -13.25804       -15.39442        -5.13167
   H      -15.12940       -14.15464        -6.11734
   H      -15.77954       -11.95786        -5.19606
   H      -14.56318       -11.02440        -3.26693
*
