# ORCA input file
# SCF done       -158.846756298452          0.000516446067
! CAM-B3LYP def2-SVP def2/J RIJCOSX Grid4 TightSCF
%maxcore 5000
%tddft
    Mode sTDDFT
    Ethresh 5.0
    maxcore 5000
end

%pal
  nprocs 6
  end
* xyz 0 1
   C        5.36779         1.96158        -5.85992
   C        5.83051         2.92044        -6.70730
   S        7.30601         2.43009        -7.45760
   C        7.31073         0.90274        -6.60928
  Cl        8.53891        -0.24078        -6.83406
   C        6.21391         0.80964        -5.80282
   C        5.67353        -0.16924        -4.86318
   O        6.20406        -1.20700        -4.52757
   C        4.36391         0.40383        -4.41997
   C        4.24599         1.75681        -4.96691
   C        3.30444         2.70787        -4.68406
   C        3.34249         3.97632        -5.30436
   N        3.35688         5.01087        -5.79916
   C        2.24263         2.59130        -3.76320
   N        1.36851         2.57749        -3.01937
   C        3.34555        -0.20666        -3.74811
   C        3.25526        -1.50911        -3.19312
   S        1.68799        -2.09162        -2.69150
   C        2.35614        -3.61734        -2.23068
   C        1.48121        -4.66159        -1.74393
   O        0.28972        -4.54357        -1.59829
   C        3.73207        -3.66718        -2.44809
   C        4.22634        -2.46173        -2.96584
   C        4.63112        -4.77508        -2.21745
   S        4.63345        -5.70850        -0.75100
   C        6.06346        -6.57641        -1.24362
   C        6.48355        -6.16445        -2.48170
   C        5.66722        -5.14955        -3.03371
   C        5.98861        -4.69120        -4.41594
   C        7.46878        -4.27325        -4.49237
   C        7.89813        -4.28029        -5.95044
   F        7.09084        -3.54796        -6.73214
   F        9.13551        -3.78402        -6.12028
   F        7.91458        -5.51535        -6.48022
   C        8.39448        -5.18297        -3.65838
   C        7.72832        -6.50195        -3.23448
   C        6.62977        -7.57600        -0.36407
   C        6.55697        -7.43908         1.02028
   C        7.09913        -8.42175         1.84248
   C        7.77077        -9.48198         1.21559
   N        7.82330        -9.62703        -0.08854
   C        7.24345        -8.73221        -0.86152
   C        7.04580        -8.32472         3.28413
   C        6.83107        -9.32714         4.15990
   C        7.17650        -9.13283         5.60800
   O        7.42596        -8.08353         6.14748
   C        7.19129       -10.49074         6.16041
   C        7.49899       -11.08368         7.34918
   S        7.27133       -12.81356         7.24698
   C        6.75278       -12.71465         5.60463
   C        6.76284       -11.42837         5.16224
   C        6.41128       -10.70910         3.95357
   C        5.65801       -11.21713         2.93267
   C        5.29154       -12.58015         2.90338
   N        5.00133       -13.68897         2.86652
   C        5.10456       -10.46139         1.87915
   N        4.57645        -9.89010         1.03566
  Cl        8.03264       -10.34674         8.77720
   H        5.41051         3.87637        -6.94960
   H        2.42630         0.35973        -3.65390
   H        2.00477        -5.60816        -1.51317
   H        5.26899        -2.28043        -3.13742
   H        5.35159        -3.87190        -4.74345
   H        5.82735        -5.53659        -5.09379
   H        7.56150        -3.23433        -4.16250
   H        8.69249        -4.64852        -2.75512
   H        9.30139        -5.40423        -4.22323
   H        8.42314        -7.07356        -2.61983
   H        7.48513        -7.09341        -4.12092
   H        6.04772        -6.58993         1.45329
   H        8.29638       -10.22643         1.79969
   H        7.25076        -8.95067        -1.91928
   H        7.27646        -7.35646         3.71711
   H        6.48624       -13.61092         5.08039
*
