# ORCA input file
# SCF done       -130.623701372187          0.000763705546
! CAM-B3LYP def2-SVP def2/J RIJCOSX Grid4 TightSCF
%maxcore 5000
%tddft
    Mode sTDDFT
    Ethresh 5.0
    maxcore 5000
end

%pal
  nprocs 6
  end
* xyz 0 1
   C        2.53331         1.84118         3.01392
   C        2.25555         2.92607         3.78777
   S        3.63337         3.40560         4.70767
   C        4.61033         2.11980         4.03909
  Cl        6.22777         1.91095         4.49362
   C        3.88151         1.37703         3.15759
   C        4.10676         0.21227         2.29796
   O        5.12835        -0.41402         2.14047
   C        2.79487        -0.00276         1.60194
   C        1.83824         0.99952         2.06304
   C        0.52157         1.12967         1.71711
   C       -0.28509         2.14936         2.26776
   N       -0.95188         2.97403         2.70425
   C       -0.17580         0.30000         0.81589
   N       -0.79426        -0.34468         0.09543
   C        2.59961        -0.91102         0.61931
   C        3.55042        -1.92198         0.22488
   C        4.17020        -2.79854         1.13005
   N        5.02962        -3.70966         0.74845
   C        5.29619        -3.81873        -0.55224
   N        4.72760        -3.07221        -1.49726
   C        3.88343        -2.14169        -1.11892
   C        6.25057        -4.83499        -0.96903
   C        6.83978        -5.72075        -0.05983
   N        7.69138        -6.64788        -0.43825
   C        7.97638        -6.72893        -1.73846
   N        7.48374        -5.92586        -2.68213
   C        6.63857        -4.99238        -2.30416
   C        8.89567        -7.77772        -2.15962
   C        9.46157        -8.68090        -1.25239
   N       10.29334        -9.62463        -1.63313
   C       10.54984        -9.73050        -2.93684
   N       10.06756        -8.91894        -3.88167
   C        9.26718        -7.94921        -3.49712
   C       11.48566       -10.76812        -3.31965
   C       11.68281       -11.30973        -4.53704
   C       12.95073       -12.08066        -4.79852
   O       13.70717       -12.51695        -3.96920
   C       13.05586       -12.10914        -6.26026
   C       13.96165       -12.53064        -7.18912
   S       13.37259       -12.21696        -8.80340
   C       11.90544       -11.53131        -8.20662
   C       11.87752       -11.53755        -6.84710
   C       10.95282       -11.16948        -5.79251
   C        9.61711       -10.95311        -5.96455
   C        9.04312       -10.89891        -7.25311
   N        8.57591       -10.83949        -8.29875
   C        8.67334       -10.86585        -4.91962
   N        7.84654       -10.87275        -4.12421
  Cl       15.46518       -13.26245        -6.92367
   H        1.34189         3.47900         3.88073
   H        1.67738        -0.89359         0.05136
   H        3.92901        -2.77852         2.18398
   H        3.46883        -1.52581        -1.90680
   H        6.60682        -5.66871         0.99510
   H        6.24926        -4.34182        -3.07566
   H        9.23519        -8.62027        -0.19677
   H        8.89470        -7.28639        -4.26616
   H       12.14788       -11.09304        -2.52512
   H       11.17408       -11.16524        -8.89948
*
