# ORCA input file
# SCF done       -146.527783889159          0.000481772523
! CAM-B3LYP def2-SVP def2/J RIJCOSX Grid4 TightSCF
%maxcore 5000
%tddft
    Mode sTDDFT
    Ethresh 5.0
    maxcore 5000
end

%pal
  nprocs 6
  end
* xyz 0 1
   C        2.46750         2.14790         3.09575
   C        2.02284         3.24306         3.76998
   S        2.54133         3.21567         5.41534
   C        3.37680         1.69619         5.19653
  Cl        4.20561         0.95038         6.47074
   C        3.24205         1.26028         3.91126
   C        3.67895         0.10494         3.12409
   O        4.36165        -0.82548         3.48758
   C        3.14453         0.36266         1.74714
   C        2.37870         1.60437         1.75679
   C        1.66233         2.15890         0.73188
   C        0.95465         3.36844         0.90195
   N        0.37876         4.35282         1.02381
   C        1.53015         1.61731        -0.56265
   N        1.38082         1.22079        -1.62933
   C        3.47709        -0.35968         0.64955
   C        4.20775        -1.59717         0.66339
   C        3.96152        -2.64168         1.56761
   N        4.68543        -3.73449         1.59808
   C        5.67191        -3.85719         0.70256
   N        5.93059        -2.95965        -0.25572
   C        5.22256        -1.86063        -0.27292
   C        6.50620        -5.01783         0.71938
   S        7.79507        -5.08362        -0.43111
   C        8.26937        -6.65502         0.15068
   C        7.46160        -7.08440         1.19043
   C        6.45285        -6.15363         1.50941
   C        5.45962        -6.38977         2.58945
   S        5.95460        -5.39197         4.07876
   C        5.39587        -7.86216         2.96953
   C        6.80150        -8.40286         3.20137
   C        7.59973        -8.39110         1.89918
   C        9.34830        -7.32191        -0.49768
   S        9.72885        -8.99558        -0.25392
   C       10.99813        -8.93261        -1.42287
   C       11.77932       -10.10119        -1.74283
   O       12.62821       -10.14707        -2.60162
   C       11.10394        -7.66550        -1.99562
   C       10.17154        -6.76594        -1.45317
   C       12.08703        -7.32444        -2.98857
   C       11.93241        -6.46930        -4.02220
   C       13.14824        -5.94338        -4.73051
   O       14.27493        -6.35585        -4.62501
   C       12.64980        -4.79692        -5.49995
   C       13.17660        -3.81877        -6.28956
   S       11.91533        -2.75677        -6.87109
   C       10.69158        -3.65299        -6.04945
   C       11.22519        -4.70076        -5.36508
   C       10.74888        -5.80596        -4.55608
   C        9.44580        -6.21672        -4.49799
   C        8.41369        -5.46540        -5.10091
   N        7.56201        -4.85610        -5.56874
   C        8.98613        -7.41987        -3.92586
   N        8.54179        -8.40307        -3.53440
  Cl       14.79841        -3.57642        -6.71165
   H        1.43173         4.06500         3.41765
   H        3.22537         0.02322        -0.33204
   H        3.12676        -2.60745         2.25380
   H        5.47856        -1.13825        -1.03748
   H        4.48118        -6.00037         2.30434
   H        5.45775        -4.25149         3.61203
   H        4.91109        -8.41638         2.16172
   H        4.79435        -7.97283         3.87236
   H        7.29893        -7.77671         3.94447
   H        6.75638        -9.42001         3.59097
   H        7.24222        -9.18684         1.23664
   H        8.65329        -8.59418         2.10617
   H       11.53907       -10.97974        -1.11542
   H       10.11438        -5.72590        -1.72365
   H       13.06993        -7.76965        -2.87410
   H        9.66943        -3.33838        -6.12224
*
