# ORCA input file
# SCF done       -164.865328105361          0.000970283563
! CAM-B3LYP def2-SVP def2/J RIJCOSX Grid4 TightSCF
%maxcore 5000
%tddft
    Mode sTDDFT
    Ethresh 5.0
    maxcore 5000
end

%pal
  nprocs 6
  end
* xyz 0 1
   C        1.35798         2.41359         1.89319
   C        0.72619         3.55092         2.29188
   S        0.83022         3.75642         4.00186
   C        1.74533         2.27922         4.19110
  Cl        2.26747         1.75031         5.71195
   C        1.94207         1.68441         2.97979
   C        2.60044         0.48280         2.46850
   O        3.20840        -0.35879         3.09884
   C        2.36869         0.50435         1.00507
   C        1.62031         1.70620         0.65528
   C        1.22355         2.13593        -0.58237
   C        0.49388         3.33435        -0.74129
   N       -0.10021         4.30432        -0.88871
   C        1.47640         1.48805        -1.80784
   N        1.65319         1.01152        -2.83744
   C        2.75494        -0.46372         0.12550
   C        3.44649        -1.67740         0.34214
   S        4.08931        -2.27835         1.84350
   C        4.65615        -3.70151         1.07066
   C        5.44552        -4.67180         1.82144
   O        6.24623        -5.42859         1.33525
   C        4.35745        -3.73037        -0.29484
   C        3.68082        -2.57737        -0.69321
   C        4.57990        -4.91660        -1.09346
   N        5.01882        -4.96814        -2.38483
   C        5.56336        -3.88159        -3.16291
   C        6.82985        -3.31171        -2.53223
   C        5.06014        -6.30839        -2.86146
   O        5.43101        -6.60016        -3.97532
   C        4.57455        -7.09393        -1.74772
   C        4.29513        -6.20119        -0.68121
   C        3.79987        -6.97194         0.43182
   O        3.44568        -6.64359         1.54582
   N        3.78692        -8.29958        -0.04186
   C        3.47980        -9.36970         0.87848
   C        4.71351       -10.19343         1.23380
   C        4.25153        -8.38233        -1.33869
   C        4.36324        -9.52079        -2.18655
   C        3.83655       -10.75467        -2.02723
   C        4.02621       -11.79563        -2.99620
   N        4.78877       -11.58664        -4.08432
   C        4.97086       -12.59888        -4.88293
   C        4.28570       -13.81995        -4.67573
   N        3.47564       -13.91241        -3.61007
   N        3.40353       -12.95660        -2.76558
   C        4.35986       -14.92753        -5.58282
   C        4.27411       -16.23898        -5.26159
   C        3.98786       -17.24094        -6.34059
   O        4.08800       -17.06181        -7.52942
   C        3.51893       -18.42423        -5.61204
   C        2.99868       -19.64683        -5.91728
   S        2.65121       -20.54568        -4.45934
   C        3.22697       -19.26532        -3.45435
   C        3.64923       -18.20942        -4.19895
   C        4.24913       -16.90907        -3.97022
   C        4.85140       -16.52196        -2.80515
   C        4.79082       -17.32029        -1.64407
   N        4.74036       -17.95951        -0.69291
   C        5.64030       -15.36403        -2.66445
   N        6.33267       -14.45884        -2.52637
  Cl        2.68871       -20.29811        -7.44990
   H        0.20568         4.28221         1.70585
   H        2.48479        -0.31427        -0.91345
   H        5.28313        -4.61467         2.91204
   H        3.32401        -2.40053        -1.69255
   H        4.81280        -3.09633        -3.28984
   H        5.79055        -4.30905        -4.14397
   H        6.61581        -2.87166        -1.56063
   H        7.24797        -2.54450        -3.17782
   H        7.56870        -4.09804        -2.39971
   H        2.68167        -9.99811         0.47509
   H        3.10123        -8.87181         1.77701
   H        5.12036       -10.69645         0.35994
   H        4.45079       -10.94233         1.97587
   H        5.48132        -9.54507         1.64965
   H        4.91225        -9.32499        -3.10013
   H        3.23349       -11.04648        -1.18363
   H        5.66182       -12.46570        -5.70411
   H        4.42795       -14.69140        -6.63894
   H        3.20175       -19.37827        -2.38866
*
