# ORCA input file
# SCF done       -148.021931220602          0.000846559534
! CAM-B3LYP def2-SVP def2/J RIJCOSX Grid4 TightSCF
%maxcore 5000
%tddft
    Mode sTDDFT
    Ethresh 5.0
    maxcore 5000
end

%pal
  nprocs 6
  end
* xyz 0 1
   C       -1.39140        -1.32052        -0.67044
   C       -2.45541        -0.82604         0.10226
   C       -2.27485         0.34301         0.82151
   C       -1.05852         1.03096         0.78140
   C        0.00056         0.51714         0.00303
   C       -0.18444        -0.66671        -0.71735
   N        1.18555         1.19088        -0.02835
   C        1.48204         2.36794         0.63870
   O        2.57680         2.87203         0.53128
   C        0.36305         2.88438         1.43937
   C       -0.83302         2.24154         1.49732
   C        0.56901         4.08503         2.15561
   N        0.70736         5.05746         2.74534
   C       -3.73104        -1.53574         0.14730
   C       -4.50377        -1.62726         1.31451
   N       -5.65754        -2.24473         1.35191
   C       -6.10225        -2.81182         0.22937
   N       -5.43712        -2.80816        -0.92845
   C       -4.28137        -2.18042        -0.96399
   C       -7.39117        -3.45522         0.32845
   N       -7.95648        -4.27328        -0.61484
   C       -7.43350        -4.62110        -1.91417
   C       -7.73858        -3.54076        -2.94685
   C       -9.20735        -4.75676        -0.19409
   O       -9.89535        -5.50917        -0.85952
   C       -9.39969        -4.17286         1.11178
   C       -8.26054        -3.37489         1.40483
   C       -8.45986        -2.76939         2.70897
   O       -7.81314        -2.00178         3.37914
   N       -9.71985        -3.27028         3.12251
   C      -10.25910        -2.93091         4.41623
   C      -10.02171        -4.03890         5.43997
   C      -10.28059        -4.10378         2.18765
   C      -11.53736        -4.74334         2.35654
   C      -12.08282        -5.53954         1.40383
   C      -13.33085        -6.20926         1.53408
   S      -13.98296        -7.07047         0.17958
   C      -15.37443        -7.55840         1.09303
   C      -16.43325        -8.26635         0.41304
   O      -17.48405        -8.61710         0.89676
   C      -15.31768        -7.07775         2.40042
   C      -14.17008        -6.30984         2.62955
   C      -16.31650        -7.33278         3.43993
   C      -16.80429        -8.62901         3.66742
   C      -17.72296        -8.87265         4.65805
   C      -18.18670        -7.82546         5.45993
   C      -17.69655        -6.51892         5.25238
   C      -16.75879        -6.29525         4.23816
   C      -18.18194        -5.48275         6.09792
   C      -19.08553        -5.73706         7.08197
   C      -19.61271        -7.08792         7.31700
   O      -20.41464        -7.40377         8.16726
   N      -19.09898        -8.03811         6.45118
   C      -19.54455        -4.69530         7.91811
   N      -19.89218        -3.82860         8.58267
   H       -1.51870        -2.24201        -1.21786
   H       -3.08397         0.75170         1.40796
   H        0.62927        -1.06113        -1.30774
   H        1.94176         0.81409        -0.58926
   H       -1.63679         2.64796         2.09595
   H       -4.16589        -1.20532         2.25219
   H       -3.78491        -2.17279        -1.92679
   H       -7.92509        -5.55575        -2.19880
   H       -6.35626        -4.77331        -1.83629
   H       -8.81102        -3.37197        -3.00694
   H       -7.37895        -3.85500        -3.92233
   H       -7.24424        -2.61290        -2.67211
   H      -11.32512        -2.70472         4.32317
   H       -9.73403        -2.02508         4.73242
   H      -10.49055        -4.96953         5.12705
   H      -10.43082        -3.74555         6.40285
   H       -8.95473        -4.21216         5.55403
   H      -12.06374        -4.57053         3.28356
   H      -11.55338        -5.68715         0.47145
   H      -16.19904        -8.45967        -0.65212
   H      -13.94757        -5.86981         3.58508
   H      -16.44417        -9.44367         3.06056
   H      -18.09428        -9.87267         4.82423
   H      -16.40048        -5.28966         4.07315
   H      -17.81634        -4.47558         5.94939
   H      -19.45261        -8.97877         6.58732
*
