# ORCA input file
# SCF done       -195.622559531695          0.000556904164
! CAM-B3LYP def2-SVP def2/J RIJCOSX Grid4 TightSCF
%maxcore 5000
%tddft
    Mode sTDDFT
    Ethresh 5.0
    maxcore 5000
end

%pal
  nprocs 6
  end
* xyz 0 1
   C       -4.28948         0.56847         5.30635
   N       -5.40795         1.30305         5.56039
   C       -6.52339         0.88479         6.37040
   C       -7.40673        -0.12031         5.63547
   C       -5.38465         2.53157         4.86923
   O       -6.28272         3.35797         4.94950
   C       -4.13808         2.51017         4.15613
   C       -3.48487         1.27231         4.45598
   C       -2.22461         1.24680         3.74086
   O       -1.33862         0.42313         3.67593
   N       -2.20005         2.47057         3.04744
   C       -1.06547         2.84791         2.24168
   C       -0.14341         3.81964         2.97497
   C       -3.32478         3.23400         3.28614
   C       -3.55366         4.50112         2.71176
   C       -4.68365         5.21692         2.98907
   C       -4.99273         6.48141         2.47703
   S       -3.95528         7.34227         1.37951
   C       -5.01637         8.71236         1.29721
   C       -6.15479         8.50436         2.09844
   C       -6.14564         7.24385         2.75869
   C       -7.22019         6.88774         3.58190
   C       -8.30115         7.73173         3.73484
   C       -9.39960         7.24359         4.57115
   C      -10.69690         7.37834         4.33304
   C       -8.29757         9.00923         3.10368
   C       -9.40558         9.99579         3.31711
   C       -7.23917         9.37213         2.30849
   C       -4.71124         9.84556         0.51366
   C       -3.64339         9.93779        -0.31730
   C       -3.29034        11.06816        -1.12376
   C       -2.28573        10.93447        -2.08480
   C       -1.92115        11.97150        -2.92720
   N       -0.91275        11.60874        -3.88641
   O        0.02568        10.95527        -3.47825
   O       -1.07112        11.91905        -5.05142
   C       -2.49151        13.25904        -2.80054
   C       -3.47491        13.38007        -1.79280
   C       -3.88471        12.33767        -1.00731
   C       -2.12955        14.47374        -3.46967
   C       -1.46836        14.67692        -4.63876
   C       -1.14093        15.95023        -5.14424
   S       -1.40677        17.41535        -4.26394
   C       -0.77962        18.41987        -5.53796
   C       -0.32993        17.62282        -6.61399
   C       -0.54634        16.23134        -6.39297
   C       -0.16640        15.30683        -7.37326
   C        0.41172        15.71974        -8.55602
   C        0.72393        14.68037        -9.53838
   C        0.58104        14.76542       -10.85378
   C        0.70455        17.09889        -8.74505
   C        1.45461        17.58817        -9.94676
   C        0.33983        18.01170        -7.78485
   C       -0.81490        19.80692        -5.31455
   C       -0.63181        20.80628        -6.22855
   C       -0.65910        22.16680        -5.85958
   N       -0.50540        23.20435        -6.75832
   C       -0.37766        23.09160        -8.18940
   C       -1.71821        22.80589        -8.86311
   C       -0.53861        24.46337        -6.13064
   O       -0.42141        25.51414        -6.72739
   C       -0.72160        24.15199        -4.73198
   C       -0.79729        22.74146        -4.59502
   C       -0.98340        22.45639        -3.19795
   O       -1.12481        21.41219        -2.58360
   N       -1.00124        23.72112        -2.57170
   C       -1.12405        23.79723        -1.13776
   C        0.23324        23.98223        -0.46175
   C       -0.83945        24.74076        -3.48190
   C       -0.80919        26.16238        -3.28453
   C       -0.86328        26.88188        -2.16210
   H       -4.14693        -0.39617         5.75641
   H       -7.09643         1.78777         6.59824
   H       -6.14813         0.45182         7.30270
   H       -7.79323         0.32249         4.72073
   H       -8.24409        -0.40804         6.26521
   H       -6.83985        -1.01218         5.37741
   H       -1.41268         3.27870         1.29803
   H       -0.52517         1.92093         2.02906
   H       -0.67064         4.73418         3.23774
   H        0.70379         4.07229         2.34328
   H        0.22747         3.35946         3.88752
   H       -2.81547         4.91091         2.03646
   H       -5.40897         4.78845         3.66718
   H       -7.21544         5.93130         4.08249
   H       -9.07906         6.65769         5.42415
   H      -11.08032         7.89080         3.46830
   H      -11.43165         6.94340         4.98939
   H       -9.85399         9.87460         4.29976
   H      -10.18536         9.86286         2.56716
   H       -9.02705        11.01159         3.22247
   H       -7.23981        10.34472         1.83859
   H       -5.40751        10.66824         0.59337
   H       -2.99415         9.07566        -0.40806
   H       -1.78508         9.98377        -2.20134
   H       -3.92740        14.35085        -1.65180
   H       -4.65227        12.50559        -0.26833
   H       -2.47453        15.36515        -2.95533
   H       -1.18286        13.84536        -5.26377
   H       -0.34068        14.25417        -7.20933
   H        1.03942        13.73936        -9.10394
   H        0.21209        15.64914       -11.34382
   H        0.80013        13.92671       -11.49276
   H        0.76435        17.84869       -10.74932
   H        2.13683        16.82807       -10.31853
   H        2.02253        18.48217        -9.69654
   H        0.60974        19.04539        -7.92738
   H       -1.04555        20.10073        -4.29730
   H       -0.48351        20.57596        -7.27083
   H        0.35464        22.31636        -8.43511
   H        0.00555        24.05696        -8.53283
   H       -2.14178        21.86823        -8.50952
   H       -1.58561        22.74778        -9.94015
   H       -2.41946        23.60655        -8.64159
   H       -1.55366        22.84010        -0.82502
   H       -1.81925        24.59611        -0.87014
   H        0.86647        23.12402        -0.67294
   H        0.10405        24.06236         0.61438
   H        0.73367        24.87664        -0.82603
   H       -0.72321        26.68440        -4.23020
   H       -0.93221        26.46283        -1.17535
   H       -0.83079        27.95700        -2.21159
*
