# ORCA input file
# SCF done       -130.203896223600          0.000366420443
! CAM-B3LYP def2-SVP def2/J RIJCOSX Grid4 TightSCF
%maxcore 5000
%tddft
    Mode sTDDFT
    Ethresh 5.0
    maxcore 5000
end

%pal
  nprocs 6
  end
* xyz 0 1
   C       -4.60585        -1.63039        -0.31220
   N       -5.62582        -0.90263         0.21429
   C       -6.83062        -1.43568         0.79894
   C       -6.57230        -2.02295         2.18393
   C       -5.34368         0.48556         0.17825
   O       -6.10461         1.33607         0.59156
   C       -4.04031         0.55155        -0.43530
   C       -3.61629        -0.78252        -0.72577
   C       -2.30841        -0.69528        -1.33804
   O       -1.53926        -1.53502        -1.74772
   N       -2.02833         0.69282        -1.37540
   C       -0.79682         1.14390        -1.97525
   C       -1.00295         1.61119        -3.41474
   C       -3.05862         1.43844        -0.84507
   C       -3.19112         2.84885        -0.66940
   C       -2.36913         3.85472        -1.03195
   C       -2.62089         5.24863        -0.76681
   C       -3.75664         5.76646        -0.12184
   N       -3.91549         7.04808         0.11261
   C       -2.95387         7.88252        -0.28587
   N       -1.84463         7.50594        -0.92391
   C       -1.68768         6.22329        -1.15595
   C       -3.12740         9.29837         0.00311
   C       -4.25205         9.78615         0.67858
   N       -4.40042        11.06065         0.96312
   C       -3.43108        11.88983         0.58347
   N       -2.33208        11.53676        -0.07728
   C       -2.18223        10.26221        -0.36467
   C       -3.58861        13.31165         0.93683
   N       -2.78453        14.18738         0.34076
   C       -2.93047        15.45402         0.68850
   C       -3.86395        15.87294         1.62083
   C       -4.67480        14.87885         2.18809
   N       -4.51814        13.60314         1.83026
   C       -5.70775        15.11258         3.17231
   C       -6.04287        16.30320         3.69784
   C       -7.05654        16.48653         4.68607
   S       -7.97609        15.14812         5.31626
   C       -8.82960        16.18481         6.37799
   C       -8.44263        17.48762         6.27097
   C       -7.43660        17.67041         5.28983
   C       -6.84726        19.00558         4.99950
   S       -5.10830        19.08550         5.64469
   C       -7.69662        20.14051         5.56496
   C       -8.14962        19.85431         6.99337
   C       -9.05584        18.61706         7.05624
   O      -10.36860        18.89521         6.61164
   H       -4.66033        -2.70239        -0.36204
   H       -7.24710        -2.19769         0.13322
   H       -7.53258        -0.60063         0.87279
   H       -5.85414        -2.83821         2.12873
   H       -7.50011        -2.40271         2.60229
   H       -6.17873        -1.25676         2.84733
   H       -0.13101         0.27502        -1.97308
   H       -0.34884         1.92451        -1.35570
   H       -1.35754         0.78080        -4.02025
   H       -0.06184         1.96400        -3.82797
   H       -1.73627         2.41300        -3.46936
   H       -4.11609         3.08978        -0.16127
   H       -1.44421         3.66606        -1.55614
   H       -4.56384         5.13043         0.21714
   H       -0.77647         5.94643        -1.67466
   H       -5.04169         9.11668         0.99273
   H       -1.28547         9.98244        -0.90138
   H       -2.26836        16.15537         0.19579
   H       -3.95405        16.91163         1.89181
   H       -6.22492        14.21566         3.48558
   H       -5.52269        17.20243         3.39760
   H       -9.57975        15.78304         7.02963
   H       -6.70405        19.14892         3.92504
   H       -5.38363        18.64817         6.87008
   H       -8.56923        20.27550         4.91852
   H       -7.12046        21.06677         5.53684
   H       -8.70244        20.70876         7.38620
   H       -7.27951        19.69243         7.63248
   H       -9.18969        18.31042         8.10001
   H      -10.33829        19.13204         5.67756
*
