# ORCA input file
# SCF done       -179.045772594252          0.000782103163
! CAM-B3LYP def2-SVP def2/J RIJCOSX Grid4 TightSCF
%maxcore 5000
%tddft
    Mode sTDDFT
    Ethresh 5.0
    maxcore 5000
end

%pal
  nprocs 6
  end
* xyz 0 1
   C        0.13952        -4.50856        -5.65772
   C        1.15658        -4.09517        -6.50221
   C        2.43550        -4.62334        -6.31274
   C        3.49113        -4.20784        -7.16245
   N        4.33849        -3.86588        -7.85171
   C        2.69802        -5.55780        -5.29282
   C        4.00457        -6.07855        -5.12826
   N        5.05191        -6.51726        -4.98173
   C        1.67173        -5.96989        -4.44165
   C        0.41492        -5.43794        -4.63645
   C       -0.81929        -5.70455        -3.86888
   O       -0.92073        -6.44708        -2.91260
   C       -1.86988        -4.89302        -4.49961
   C       -1.27965        -4.15114        -5.60059
   C       -1.90407        -3.27577        -6.44781
   C       -1.25630        -2.59259        -7.50164
   N       -0.79080        -2.00706        -8.37116
   C       -3.27177        -2.92497        -6.41026
   N       -4.36972        -2.59181        -6.44915
   C       -3.18669        -4.86291        -4.12409
   C       -3.84850        -5.54424        -3.08592
   C       -5.22072        -5.41544        -2.89169
   C       -5.72045        -6.14024        -1.81574
   S       -7.42741        -6.22149        -1.45657
   C       -8.13542        -5.95524        -3.12058
   C       -4.70170        -6.84505        -1.14227
   S       -3.15683        -6.62360        -1.90847
   C       -4.75772        -7.69512        -0.00768
   C       -5.80359        -7.69286         0.95032
   C       -5.85200        -8.62206         2.05530
   N       -6.89962        -8.59039         2.89461
   C       -7.83213        -7.68564         2.73632
   C       -7.73861        -6.70742         1.69723
   N       -6.74571        -6.75225         0.84020
   C       -8.71021        -5.68370         1.58027
   N       -9.51624        -4.87223         1.51955
   C       -8.93958        -7.68067         3.62391
   N       -9.84353        -7.65715         4.32586
   C       -4.81310        -9.55161         2.29060
   C       -3.72724        -9.48842         1.39250
   C       -3.70343        -8.59690         0.26488
   N       -2.59211        -8.74952        -0.45434
   S       -1.67032        -9.87701         0.20883
   N       -2.62599       -10.24055         1.44666
   C       -4.81776       -10.51769         3.33810
   C       -5.85563       -10.94102         4.14370
   C       -5.50080       -11.98320         5.00432
   S       -6.69815       -12.75356         6.01354
   C       -6.24491       -14.51935         5.92370
   C       -4.15229       -12.34610         4.91075
   S       -3.36637       -11.41629         3.65489
   C       -3.43430       -13.18744         5.77684
   C       -2.16476       -13.67271         5.61309
   C       -1.34786       -14.05855         6.78539
   O       -1.72695       -14.25934         7.91528
   C        0.04886       -14.08932         6.27838
   C        1.21780       -14.27862         6.98304
   C        2.42544       -14.22484         6.28278
   C        2.43155       -13.98489         4.89538
   C        1.24051       -13.81146         4.18689
   C        0.04851       -13.86434         4.88641
   C       -1.33691       -13.75901         4.43472
   C       -1.78599       -13.97877         3.15662
   C       -3.14752       -14.24220         2.90038
   N       -4.24316       -14.53268         2.71772
   C       -0.95967       -14.02145         2.01969
   N       -0.32649       -14.01058         1.06215
   C        3.66709       -13.91257         4.20553
   N        4.65842       -13.84591         3.63677
   C        3.64863       -14.40738         6.97172
   N        4.62817       -14.55493         7.54618
   H        0.99737        -3.38334        -7.29616
   H        1.85500        -6.68357        -3.65292
   H       -3.84626        -4.22738        -4.70245
   H       -5.82259        -4.78790        -3.52361
   H       -9.16476        -6.29143        -3.04686
   H       -7.60220        -6.54442        -3.85872
   H       -8.12061        -4.89963        -3.37143
   H       -6.84671       -10.53168         4.09025
   H       -7.18309       -15.06290         5.86135
   H       -5.70619       -14.82424         6.81470
   H       -5.65472       -14.68940         5.02901
   H       -3.87965       -13.36758         6.74978
   H        1.20167       -14.46090         8.04684
   H        1.27409       -13.62953         3.12387
*
