# ORCA input file
# SCF done       -207.743842627982          0.000782621139
! CAM-B3LYP def2-SVP def2/J RIJCOSX Grid4 TightSCF
%maxcore 5000
%tddft
    Mode sTDDFT
    Ethresh 5.0
    maxcore 5000
end

%pal
  nprocs 6
  end
* xyz 0 1
   C        2.18567        -2.40714         1.78397
   C        3.15817        -1.60027         2.34978
   C        3.64267        -1.93051         3.61760
   C        4.64201        -1.12060         4.21234
   N        5.44897        -0.46344         4.68916
   C        3.16001        -3.05368         4.31579
   C        3.67231        -3.36399         5.59854
   N        4.07413        -3.63336         6.63640
   C        2.17868        -3.86434         3.74291
   C        1.71131        -3.52894         2.49047
   C        0.69491        -4.22380         1.67405
   O        0.07546        -5.22146         1.99934
   C        0.60308        -3.47835         0.41909
   C        1.49177        -2.33512         0.49546
   C        1.65681        -1.33904        -0.42995
   C        2.54080        -0.24921        -0.27160
   N        3.24196         0.65630        -0.20313
   C        0.96827        -1.23537        -1.65840
   N        0.44313        -1.07380        -2.66632
   C       -0.15650        -3.83970        -0.66908
   C       -1.02954        -4.91815        -0.84726
   C       -1.66743        -5.15532        -2.07476
   C       -2.47944        -6.26873        -2.04282
   C       -2.48523        -6.89318        -0.76839
   S       -1.47686        -6.12393         0.36415
   C       -3.33578        -8.02110        -0.84044
   C       -3.85710        -8.12003        -2.14449
   C       -3.33690        -7.02505        -2.94347
   C       -3.58758        -6.77876        -4.26137
   C       -4.41504        -7.62137        -5.03274
   N       -5.07887        -8.31279        -5.66239
   C       -3.02653        -5.67683        -4.94175
   N       -2.57270        -4.78369        -5.49848
   C       -4.70402        -9.21232        -2.31199
   C       -4.84327        -9.95152        -1.15270
   S       -3.90317        -9.27049         0.17347
   C       -5.62271       -11.13757        -0.94174
   C       -5.83714       -11.62426         0.34188
   C       -6.58871       -12.76035         0.58287
   C       -7.15696       -13.50483        -0.44375
   C       -6.94092       -13.05255        -1.78200
   C       -6.19791       -11.86758        -2.02695
   N       -6.02961       -11.44130        -3.29284
   C       -6.53784       -12.11688        -4.28924
   C       -7.26320       -13.32150        -4.04486
   N       -7.44728       -13.74263        -2.82140
   C       -7.82929       -14.13560        -5.15454
   C       -6.33111       -11.58890        -5.66520
   C       -7.93619       -14.67332        -0.15187
   C       -8.41321       -15.62814        -1.03103
   C       -9.14216       -16.62374        -0.38775
   C       -9.23008       -16.42930         1.00344
   S       -8.40390       -15.02445         1.50993
   C       -9.98519       -17.48743         1.55736
   C      -10.37518       -18.35970         0.51505
   C       -9.86069       -17.83733        -0.74038
   C      -10.03206       -18.35553        -1.99023
   C      -10.76212       -19.54171        -2.21852
   N      -11.35808       -20.50246        -2.40710
   C       -9.50615       -17.72543        -3.13757
   N       -9.08894       -17.21388        -4.07517
   C      -11.13882       -19.42534         0.96511
   C      -11.32333       -19.40378         2.34476
   S      -10.55723       -17.99006         3.07617
   C      -12.12218       -20.31212         3.06225
   C      -12.29225       -20.47751         4.40725
   C      -13.53902       -21.11884         4.89828
   O      -14.34514       -21.74352         4.25181
   C      -13.60884       -20.76594         6.33741
   C      -14.62993       -21.00169         7.23272
   C      -14.48179       -20.52973         8.53860
   C      -13.31737       -19.83172         8.91227
   C      -12.28202       -19.61148         8.00113
   C      -12.43237       -20.08620         6.71053
   C      -11.53211       -20.04580         5.55667
   C      -10.16947       -19.91902         5.62932
   C       -9.31641       -20.21524         4.54575
   N       -8.59895       -20.49299         3.69418
   C       -9.47299       -19.58623         6.80890
   N       -8.87084       -19.29654         7.74156
   C      -13.19618       -19.33862        10.23528
   N      -13.09501       -18.92979        11.29983
   C      -15.50995       -20.74611         9.48771
   N      -16.35279       -20.92987        10.24058
   H        3.55539        -0.73287         1.84753
   H        1.79807        -4.72991         4.26361
   H       -0.07075        -3.21661        -1.55116
   H       -1.51473        -4.52042        -2.92979
   H       -5.20752        -9.48979        -3.21870
   H       -5.41343       -11.09341         1.18220
   H       -6.73027       -13.08215         1.60467
   H       -8.58063       -13.56114        -5.69490
   H       -8.28556       -15.04050        -4.76280
   H       -7.04597       -14.40422        -5.86127
   H       -5.72267       -12.28279        -6.24402
   H       -5.83212       -10.62445        -5.62646
   H       -7.28636       -11.48006        -6.17552
   H       -8.21942       -15.56406        -2.08523
   H      -11.53962       -20.20655         0.34444
   H      -12.78639       -20.91431         2.44819
   H      -15.51950       -21.53409         6.93217
   H      -11.40373       -19.07053         8.31712
*
