# ORCA input file
# SCF done       -186.722353689886          0.000470783868
! CAM-B3LYP def2-SVP def2/J RIJCOSX Grid4 TightSCF
%maxcore 5000
%tddft
    Mode sTDDFT
    Ethresh 5.0
    maxcore 5000
end

%pal
  nprocs 6
  end
* xyz 0 1
   C       18.87587         2.94349         0.30400
   N       18.91389         3.05484         1.59085
   C       17.82087         2.40846         2.06573
   C       17.09563         1.86267         1.02994
   N       17.77534         2.23186        -0.12581
   C       17.60543         1.70782        -1.42073
   O       17.33503         0.55967        -1.63063
   N       17.81640         2.63671        -2.42400
   C       17.85206         4.02172        -2.36256
   C       18.04005         4.44596        -3.63621
   N       18.12884         3.37521        -4.48698
   C       17.98253         2.32361        -3.76179
   C       15.84654         1.17130         1.05728
   C       14.91635         1.01548         0.05182
   C       13.78984         0.31707         0.49125
   C       13.86459        -0.05196         1.84543
   S       15.32496         0.45568         2.57179
   C       12.66876        -0.72114         2.20403
   C       11.84024        -0.78211         1.06332
   C       12.51932        -0.13410        -0.04843
   C       12.05881         0.03361        -1.32137
   C       12.81130         0.71938        -2.29851
   N       13.41987         1.29245        -3.08364
   C       10.79932        -0.44794        -1.73716
   N        9.77596        -0.83328        -2.08215
   C       10.61925        -1.38910         1.31667
   C       10.50177        -1.78536         2.64463
   S       11.94043        -1.41630         3.58509
   C        9.36510        -2.36314         3.26275
   C        9.35728        -2.65460         4.64541
   C        8.17957        -3.12800         5.32678
   N        8.22890        -3.36479         6.64137
   C        9.34473        -3.16971         7.30295
   C       10.51523        -2.69780         6.62579
   N       10.48408        -2.45679         5.33669
   C       11.71988        -2.48358         7.33941
   N       12.67978        -2.31661         7.94154
   C        9.37661        -3.42984         8.69493
   N        9.43027        -3.63105         9.82120
   C        6.95076        -3.33233         4.65967
   C        6.97529        -3.11367         3.26117
   C        8.15767        -2.63924         2.57706
   N        7.93862        -2.49431         1.27013
   S        6.42816        -2.90859         0.92944
   N        5.96026        -3.28812         2.41479
   C        5.77938        -3.67996         5.37727
   C        4.49921        -3.84176         4.85834
   C        3.56593        -4.09685         5.85202
   C        4.13719        -4.14092         7.14171
   S        5.82470        -3.87090         7.12424
   C        3.09767        -4.36498         8.07745
   C        1.87655        -4.45118         7.38688
   C        2.12899        -4.29524         5.96533
   C        1.20923        -4.31739         4.95824
   C        1.56982        -4.15260         3.60401
   N        1.85373        -4.01609         2.50159
   C       -0.16753        -4.49396         5.21258
   N       -1.28701        -4.62496         5.42434
   C        0.78144        -4.63549         8.23316
   C        1.16201        -4.70080         9.55671
   S        2.89469        -4.52208         9.76638
   C        0.34795        -4.82943        10.72268
   C        0.61853        -4.48020        12.02735
   N       -0.46844        -4.68919        12.80970
   C       -1.40053        -5.13342        12.03254
   N       -0.98132        -5.23786        10.72285
   C       -1.66054        -5.93483         9.70660
   O       -1.13950        -6.77080         9.02513
   N       -2.99227        -5.57416         9.59486
   C       -3.93144        -6.25917         8.83968
   C       -5.07666        -5.54103         8.92381
   N       -4.87721        -4.41973         9.68732
   C       -3.65020        -4.45339        10.07214
   H       19.62162         3.31651        -0.36898
   H       17.60533         2.37448         3.11460
   H       17.71185         4.56147        -1.44954
   H       18.11791         5.44731        -4.00824
   H       17.99330         1.30909        -4.10442
   H       15.03534         1.39922        -0.94400
   H        9.82892        -1.54323         0.60525
   H        4.29745        -3.75885         3.80622
   H       -0.23520        -4.70006         7.89391
   H        1.52886        -4.08583        12.43173
   H       -2.38003        -5.42950        12.35045
   H       -3.67696        -7.16968         8.33994
   H       -6.03432        -5.73944         8.48824
   H       -3.17101        -3.70068        10.66517
*
