# ORCA input file
# SCF done       -171.149798107980          0.000866033797
! CAM-B3LYP def2-SVP def2/J RIJCOSX Grid4 TightSCF
%maxcore 5000
%tddft
    Mode sTDDFT
    Ethresh 5.0
    maxcore 5000
end

%pal
  nprocs 6
  end
* xyz 0 1
   C        0.10879         2.48789        -4.53616
   C       -0.90209         3.31256        -4.12239
   C       -0.65836         4.30379        -3.16035
   C        0.59192         4.45706        -2.62564
   C        1.65624         3.62646        -3.03043
   C        2.95288         3.78796        -2.48917
   C        3.96280         2.96442        -2.90705
   C        3.70281         1.94540        -3.86953
   C        2.46383         1.77302        -4.41467
   C        1.40715         2.61815        -4.00576
   C        4.93965         1.18196        -4.11420
   O        5.11810         0.28084        -4.90106
   C        5.93052         1.71604        -3.13473
   C        5.38087         2.92291        -2.56298
   C        6.08982         3.96350        -2.01684
   C        7.49577         4.00666        -1.96334
   N        8.63877         4.10923        -1.91750
   C        5.50115         5.13854        -1.51006
   N        5.07479         6.09781        -1.04450
   C        7.05086         0.98270        -2.87892
   C        7.94122         1.01271        -1.78317
   C        7.79995         1.57853        -0.53248
   C        8.87908         1.33482         0.32122
   S        8.97374         2.07660         1.90096
   C        7.93532         3.55962         1.65853
   C        9.87314         0.53353        -0.26801
   S        9.46111         0.16264        -1.91439
   C       11.08717         0.02409         0.26141
   C       12.05965        -0.54171        -0.60952
   C       13.33942        -1.02047        -0.17153
   N       14.20916        -1.49036        -1.08768
   C       13.85766        -1.53008        -2.34241
   C       12.58294        -1.11132        -2.76633
   N       11.73087        -0.62762        -1.90655
   C       13.69667        -1.00809         1.20060
   C       12.70717        -0.51796         2.07508
   C       11.42558        -0.02354         1.62873
   N       10.64974         0.30755         2.65935
   S       11.44223         0.06867         4.03177
   N       12.80993        -0.48692         3.40493
   C       14.93734        -1.48498         1.71696
   C       15.99645        -2.05003         1.03770
   C       17.06634        -2.42984         1.85669
   S       18.52178        -2.97956         1.07386
   C       19.85996        -2.52577         2.20550
   C       16.82523        -2.19250         3.21394
   S       15.27922        -1.37798         3.41769
   C       17.52404        -2.50132         4.39289
   C       18.33005        -3.58882         4.62583
   C       19.11874        -3.83062         5.81234
   C       19.50766        -2.88481         6.72763
   C       20.31641        -3.15855         7.84785
   N       20.97091        -3.32586         8.77640
   C       19.20197        -1.51308         6.62293
   N       19.01855        -0.38048         6.57028
   C       19.53559        -5.22795         5.79176
   C       19.10235        -5.80901         4.56516
   C       19.35192        -7.11427         4.25969
   C       20.05716        -7.91594         5.18692
   C       20.33864        -9.27134         4.92938
   C       21.01161       -10.03312         5.84621
   C       21.43519        -9.47123         7.05917
   C       21.17902        -8.15634         7.33911
   C       20.48701        -7.34427         6.41841
   C       20.21605        -5.98594         6.70580
   C       18.35181        -4.80415         3.78825
   O       17.79877        -4.96726         2.71635
   H       -0.07287         1.72254        -5.27649
   H       -1.89455         3.20527        -4.53386
   H       -1.46649         4.94674        -2.84529
   H        0.78517         5.22146        -1.88730
   H        3.11218         4.55545        -1.74761
   H        2.29061         1.00207        -5.15064
   H        7.24256         0.19449        -3.60169
   H        6.91332         2.09875        -0.22057
   H        8.17603         4.21149         2.49230
   H        6.88053         3.30504         1.69589
   H        8.19473         4.04358         0.72303
   H       14.59314        -1.90795        -3.03910
   H       12.26245        -1.17048        -3.79620
   H       15.99963        -2.17656        -0.02838
   H       20.72664        -2.33884         1.57842
   H       20.07513        -3.34121         2.89381
   H       19.58917        -1.62927         2.75426
   H       17.29261        -1.85855         5.23458
   H       19.01406        -7.53325         3.32337
   H       20.00967        -9.69907         3.99346
   H       21.22048       -11.07260         5.64132
   H       21.96495       -10.08546         7.77189
   H       21.50350        -7.71833         8.27170
   H       20.54504        -5.58178         7.65027
*
