# ORCA input file
# SCF done       -204.258432268166          0.000807235919
! CAM-B3LYP def2-SVP def2/J RIJCOSX Grid4 TightSCF
%maxcore 5000
%tddft
    Mode sTDDFT
    Ethresh 5.0
    maxcore 5000
end

%pal
  nprocs 6
  end
* xyz 0 1
   C       -0.67823         1.90818         6.66774
   C       -0.58587         2.45232         7.92250
   C        0.53935         2.31466         8.76207
   N        1.42662         2.24462         9.48693
   C       -1.60898         3.18255         8.56314
   N       -2.40445         3.76483         9.15214
   C        0.31681         1.05774         6.03151
   C       -0.22255         0.55916         4.81903
   C        0.47781        -0.28131         3.98729
   C        1.77172        -0.64718         4.36918
   C        2.30435        -0.14072         5.57998
   C        1.59607         0.70862         6.42164
   S        3.91873        -0.71804         5.84588
   C        3.86763        -1.61507         4.36810
   C        2.69992        -1.49311         3.69972
   C       -1.58435         1.08484         4.62587
   O       -2.31029         0.86883         3.67978
   C       -1.82440         1.99404         5.77864
   C       -2.82533         2.91573         5.88490
   C       -4.02045         3.00295         5.13623
   C       -4.72726         2.03826         4.43240
   C       -5.89405         2.54789         3.87540
   C       -6.08075         3.91995         4.14483
   S       -4.84524         4.56427         5.11915
   C       -7.26712         4.34600         3.50139
   C       -7.84467         3.24444         2.83966
   C       -6.99849         2.07868         3.05196
   C       -7.18676         0.81651         2.57573
   C       -6.31471        -0.25002         2.89069
   N       -5.63779        -1.13873         3.14653
   C       -8.26287         0.45935         1.73246
   N       -9.10756         0.13747         1.02818
   C       -9.03289         3.56450         2.18728
   C       -9.34884         4.90602         2.33259
   S       -8.17012         5.77780         3.30057
   C      -10.46387         5.59031         1.78792
   C      -11.56554         5.09586         1.12502
   C      -12.11275         3.79304         0.71661
   O      -11.67815         2.67808         0.86464
   N      -13.31375         4.09302         0.07746
   C      -14.17650         3.08153        -0.48156
   C      -13.59935         5.44824         0.02705
   O      -14.58004         5.93993        -0.48285
   C      -12.47498         6.09454         0.70630
   C      -12.10598         7.38085         1.02032
   S      -10.57795         7.34209         1.88238
   C      -12.76226         8.59989         0.72942
   C      -12.29859         9.87345         1.02145
   C      -13.17620        10.85481         0.57517
   C      -14.31785        10.31538        -0.05125
   S      -14.31015         8.61053        -0.10244
   C      -15.14553        11.39051        -0.46840
   C      -14.51917        12.60193        -0.11489
   C      -13.26834        12.30523         0.56113
   C      -12.38936        13.20506         1.08844
   C      -11.19985        12.80320         1.73129
   N      -10.23330        12.46593         2.24745
   C      -12.62409        14.59415         1.00960
   N      -12.82567        15.72013         0.92968
   C      -15.26411        13.72070        -0.46505
   C      -16.46347        13.38096        -1.07326
   S      -16.63940        11.63826        -1.24194
   C      -17.47288        14.22778        -1.58544
   C      -17.70059        15.54368        -1.32820
   C      -17.21651        16.46725        -0.32171
   C      -16.85968        16.16630         0.96724
   C      -16.53407        17.13607         1.93922
   N      -16.26745        17.88264         2.76854
   C      -16.87136        14.86465         1.50391
   N      -16.89045        13.82398         1.98905
   C      -17.44329        17.81503        -0.83096
   C      -18.26658        17.73531        -1.98456
   C      -18.53683        16.32144        -2.29156
   O      -19.23957        15.86302        -3.16238
   C      -18.68776        18.85233        -2.66575
   C      -18.26707        20.10047        -2.19682
   C      -17.42873        20.16675        -1.05683
   C      -17.00966        19.03882        -0.36067
   S      -17.02170        21.80771        -0.67063
   C      -17.96162        22.38078        -2.00445
   C      -18.55404        21.39523        -2.71361
   H        0.03729        -0.64553         3.07223
   H        2.04680         1.07306         7.32967
   H        4.73005        -2.18749         4.08657
   H        2.48766        -1.97798         2.76416
   H       -2.69447         3.71368         6.60695
   H       -4.39921         1.01981         4.34692
   H       -9.65247         2.87862         1.63609
   H      -13.64418         2.13274        -0.44457
   H      -14.42321         3.33820        -1.51165
   H      -15.09969         3.01013         0.09567
   H      -11.36668        10.05100         1.52848
   H      -14.94132        14.73673        -0.32995
   H      -18.12307        13.79404        -2.33954
   H      -19.32173        18.76484        -3.53435
   H      -16.36339        19.13451         0.49624
   H      -18.01268        23.43802        -2.17859
   H      -19.17498        21.56240        -3.57497
*
