# ORCA input file
# SCF done       -201.799676993656          0.000930923715
! CAM-B3LYP def2-SVP def2/J RIJCOSX Grid4 TightSCF
%maxcore 5000
%tddft
    Mode sTDDFT
    Ethresh 5.0
    maxcore 5000
end

%pal
  nprocs 6
  end
* xyz 0 1
   C       -3.18990        -1.67580        -1.87610
   C       -2.96531        -2.64065        -0.92852
   C       -2.27521        -3.84559        -1.17803
   N       -1.72986        -4.84487        -1.32310
   C       -3.35555        -2.55497         0.42466
   N       -3.62390        -2.54600         1.54108
   C       -2.70288        -1.70523        -3.24908
   C       -3.01543        -0.46973        -3.86621
   C       -2.67911        -0.18120        -5.16657
   C       -1.99953        -1.16192        -5.89556
   C       -1.69563        -2.39752        -5.27372
   C       -2.03625        -2.68769        -3.95828
   S       -0.86063        -3.46824        -6.35707
   C       -0.92716        -2.25859        -7.61158
   C       -1.54346        -1.11087        -7.24072
  Br       -0.17988        -2.62577        -9.29124
   C       -3.73222         0.39610        -2.91275
   O       -4.17417         1.49991        -3.14689
   C       -3.87166        -0.40937        -1.67180
   C       -4.67488        -0.11461        -0.60570
   C       -5.27830         1.12121        -0.28897
   C       -4.94241         2.41584        -0.65993
   C       -5.80979         3.35548        -0.12041
   C       -6.82352         2.78340         0.67932
   S       -6.67529         1.09338         0.79427
   C       -7.68498         3.81863         1.11944
   C       -7.21822         5.04054         0.59883
   C       -6.00932         4.79349        -0.17247
   C       -5.22334         5.71896        -0.79120
   C       -4.03626         5.37651        -1.47541
   N       -3.05764         5.12205        -2.01464
   C       -5.53234         7.09633        -0.76193
   N       -5.78409         8.21418        -0.73430
   C       -8.02548         6.11959         0.94523
   C       -9.09813         5.72750         1.72875
   S       -9.10583         4.00338         2.04995
   C      -10.11980         6.57796         2.22470
   C      -11.16777         6.27888         3.07465
   F      -11.36004         5.05801         3.58530
   C      -12.00200         7.37089         3.34909
   F      -13.07307         7.29779         4.14643
   C      -11.62492         8.53558         2.70753
   S      -10.19291         8.25332         1.76092
   C      -12.24132         9.81313         2.73776
   C      -11.87400        10.91068         1.97650
   C      -12.68228        12.01263         2.23790
   C      -13.66411        11.75183         3.21162
   S      -13.60087        10.14779         3.79358
   C      -14.41424        12.93561         3.41919
   C      -13.91730        13.94034         2.56498
   C      -12.81678        13.39149         1.79149
   C      -12.07510        14.02443         0.83929
   C      -11.03388        13.37067         0.14534
   N      -10.19476        12.83532        -0.42321
   C      -12.31090        15.36666         0.47092
   N      -12.50555        16.45306         0.16197
   C      -14.59998        15.14470         2.69513
   C      -15.58165        15.08976         3.67218
   S      -15.69848        13.48417         4.39108
   C      -16.45705        16.14859         4.01146
   C      -17.20497        16.34038         5.12990
   C      -17.18108        15.73773         6.44675
   C      -16.07111        15.26736         7.09921
   C      -16.08548        14.78342         8.42304
   N      -16.05317        14.36286         9.49014
   C      -14.77344        15.31092         6.54980
   N      -13.70005        15.37526         6.14782
   C      -18.47183        16.00778         7.06923
   C      -19.16827        16.95584         6.27636
   C      -18.36974        17.26993         5.07571
   O      -18.61756        18.06652         4.20180
   C      -20.39683        17.45501         6.63556
   C      -20.96795        16.98973         7.82470
   C      -20.27112        16.03104         8.60029
   C      -19.02496        15.53149         8.24216
   S      -21.16357        15.58955        10.02300
   C      -22.44009        16.68748         9.56869
   C      -22.21292        17.34935         8.40898
  Br      -23.95090        16.85380        10.66607
   H       -2.93014         0.77217        -5.60427
   H       -1.78684        -3.64508        -3.53238
   H       -1.67241        -0.26239        -7.88755
   H       -4.92400        -0.92223         0.07267
   H       -4.10363         2.64777        -1.28785
   H       -7.86447         7.14172         0.65327
   H      -11.05949        10.88284         1.27524
   H      -14.38588        16.04145         2.14222
   H      -16.60534        16.88935         3.23028
   H      -20.90048        18.18428         6.02080
   H      -18.53158        14.79895         8.85951
   H      -22.89394        18.06256         7.98189
*
