# ORCA input file
# SCF done       -209.577240901590          0.000781878513
! CAM-B3LYP def2-SVP def2/J RIJCOSX Grid4 TightSCF
%maxcore 5000
%tddft
    Mode sTDDFT
    Ethresh 5.0
    maxcore 5000
end

%pal
  nprocs 6
  end
* xyz 0 1
   C        3.33959         3.38488        -1.08293
   C        2.96301         3.93336        -2.28273
   C        3.84614         4.16953        -3.35696
   N        4.51535         4.38108        -4.26453
   C        1.62217         4.19112        -2.62393
   N        0.53765         4.39462        -2.94028
   C        4.66461         2.85387        -0.77689
   C        4.56821         2.01773         0.37413
   C        5.65402         1.35994         0.87791
   C        6.90919         1.52198         0.24939
   C        7.01519         2.37090        -0.89030
   C        5.87137         3.03359        -1.39468
   C        8.27475         2.53064        -1.50170
   C        9.37762         1.88297        -1.01431
   C        9.27222         1.04706         0.10713
   C        8.06406         0.87024         0.72535
   C        3.18472         2.03594         0.86721
   O        2.69831         1.41250         1.78259
   C        2.47545         3.05183         0.01984
   C        1.27008         3.50673         0.46570
   C        0.54008         4.67493         0.15112
   C        0.93382         5.88783        -0.42113
   C       -0.16321         6.78183        -0.37617
   C       -1.29038         6.09049         0.22081
   O       -2.43533         6.41324         0.43756
   N       -0.76896         4.82176         0.54295
   C       -1.59328         3.80206         1.13131
   C        0.20815         7.96333        -1.00781
   N        1.50127         7.82940        -1.42273
   C        2.03158         6.57952        -1.05454
   O        3.18483         6.25391        -1.26653
   C        2.34296         8.83215        -2.01583
   C       -0.63187         9.12318        -1.14985
   C       -0.77526         9.88426        -2.32534
   C       -1.70899        10.97714        -2.41354
   N       -1.86756        11.61992        -3.59302
   C       -1.18152        11.23755        -4.61874
   C       -0.26123        10.15956        -4.53249
   N       -0.07555         9.52148        -3.42466
   F        0.45263         9.78433        -5.58957
   F       -1.35437        11.90084        -5.75896
   C       -2.53202        11.34138        -1.33086
   C       -2.40419        10.56874        -0.16171
   C       -1.46529         9.47619        -0.07173
   N       -1.47455         8.91864         1.14074
   S       -2.58055         9.64611         2.03433
   N       -3.05460        10.75595         0.98826
   C       -3.54909        12.35828        -1.37244
   C       -4.83423        12.23153        -0.85498
   C       -5.52682        13.44042        -1.11021
   C       -4.60742        14.36533        -1.73312
   O       -4.70610        15.53487        -2.03871
   N       -3.42342        13.61380        -1.89407
   C       -2.23496        14.22729        -2.41886
   C       -6.81650        13.32381        -0.60737
   N       -6.93266        12.08363        -0.04432
   C       -5.75154        11.31832        -0.19753
   O       -5.65424        10.17384         0.17875
   C       -8.11918        11.54663         0.56313
   C       -7.81464        14.33687        -0.51380
   C       -7.94492        15.33835        -1.41889
   C       -8.67515        16.58570        -1.27226
   C       -9.56343        16.90309        -0.27776
   C      -10.23698        18.13911        -0.18234
   N      -10.82110        19.11852        -0.05157
   C       -9.94941        16.02918         0.75906
   N      -10.30656        15.35475         1.61734
   C       -8.27907        17.44955        -2.37693
   C       -7.46454        16.70475        -3.27958
   C       -7.33150        15.32642        -2.78952
   O       -6.95786        14.35320        -3.39868
   C       -6.93846        17.26573        -4.40678
   C       -7.19578        18.62710        -4.68212
   C       -8.00962        19.37950        -3.78542
   C       -8.54878        18.76954        -2.63061
   C       -8.26085        20.73716        -4.07274
   C       -7.73351        21.32555        -5.18958
   C       -6.93140        20.58448        -6.07086
   C       -6.66861        19.26463        -5.82254
   H        5.55860         0.72654         1.74744
   H        5.98018         3.68064        -2.25042
   H        8.35072         3.17354        -2.36620
   H       10.33790         2.01121        -1.49105
   H       10.15248         0.54424         0.47883
   H        7.97663         0.22788         1.58947
   H        0.85255         2.90398         1.26849
   H       -2.59863         4.21666         1.20740
   H       -1.24098         3.53702         2.13069
   H       -1.61595         2.90924         0.50464
   H        2.21064         9.78924        -1.51046
   H        2.11648         8.94739        -3.07577
   H        3.37289         8.49182        -1.90466
   H       -2.39362        15.30585        -2.38899
   H       -2.06229        13.91914        -3.45039
   H       -1.36914        13.96108        -1.81201
   H       -8.95953        11.57382        -0.13252
   H       -8.38293        12.10263         1.46538
   H       -7.90108        10.51251         0.82930
   H       -8.43397        14.31495         0.37366
   H       -6.32267        16.67985        -5.07195
   H       -9.15722        19.36607        -1.96911
   H       -8.87919        21.30344        -3.39175
   H       -7.93115        22.36582        -5.40062
   H       -6.52311        21.06530        -6.94721
   H       -6.05197        18.68918        -6.49718
*
