# ORCA input file
# SCF done       -177.217957355146          0.000619578100
! CAM-B3LYP def2-SVP def2/J RIJCOSX Grid4 TightSCF
%maxcore 5000
%tddft
    Mode sTDDFT
    Ethresh 5.0
    maxcore 5000
end

%pal
  nprocs 6
  end
* xyz 0 1
   C       -2.98515         3.16661         5.38804
   C       -1.84877         2.40921         5.57382
   C       -1.27703         2.15658         6.83525
   N       -0.80065         1.85523         7.83668
   C       -1.13456         1.72775         4.57387
   N       -0.49029         1.15224         3.81313
   C       -3.63451         3.94613         6.43522
   C       -4.82183         4.50710         5.91198
   C       -5.66218         5.29336         6.65965
   C       -5.30956         5.54588         7.99046
   C       -4.10774         4.99998         8.49547
   C       -3.26002         4.19954         7.74081
   S       -3.84595         5.45871        10.15034
   C       -5.35715         6.32559        10.15683
   C       -6.01040         6.30032         8.97097
  Br       -5.92490         7.16454        11.73652
   C       -4.97331         4.10668         4.49409
   O       -5.87318         4.44715         3.75914
   C       -3.80122         3.25043         4.20107
   C       -3.58797         2.47098         3.08727
   C       -4.41116         2.26295         1.96306
   O       -5.48938         3.02827         1.67789
   C       -6.00044         2.62051         0.52344
   C       -5.29981         1.57039         0.01182
   C       -4.26900         1.29851         0.94792
   N       -3.34823         0.29676         0.77221
   C       -2.66230        -0.48084         1.65458
   C       -2.85188        -0.69949         2.98561
   C       -1.97547        -1.48643         3.79090
   C       -2.26726        -1.47190         5.11415
   C       -3.39192        -0.67683         5.44807
   S       -4.14695        -0.05626         3.99044
   C       -3.82274        -0.31726         6.70591
   C       -3.30169        -0.75353         7.94551
   C       -3.86611        -0.14468         9.02119
   C       -4.86312         0.81083         8.69972
   S       -5.07689         0.88653         6.96189
   C       -5.53197         1.57826         9.62044
   C       -6.52748         2.53693         9.39863
   S       -7.30404         2.72812         7.84983
   C       -8.44626         3.83103         8.52468
   C       -8.26969         4.05720         9.85073
   C       -9.12584         4.96918        10.66131
   C       -7.14070         3.34901        10.37401
   C       -6.70808         3.51257        11.71632
   C       -5.43503         3.35774        12.18180
   C       -5.05679         3.53347        13.53126
   C       -5.91172         3.45173        14.59489
   C       -5.49467         3.67770        15.91193
   C       -6.23590         3.61319        17.06425
   C       -7.64624         3.47047        17.32445
   C       -8.70698         3.84000        16.53101
   C      -10.05556         3.73364        16.93077
   N      -11.17392         3.66937        17.18485
   C       -8.64578         4.43779        15.25803
   N       -8.71535         4.93116        14.22146
   C       -7.78179         3.00364        18.70660
   C       -6.51402         3.05910        19.33604
   C       -5.51137         3.51734        18.35358
   O       -4.33243         3.72446        18.54313
   C       -6.31447         2.67832        20.63954
   C       -7.41860         2.20428        21.35646
   C       -8.67828         2.14139        20.71756
   C       -8.88152         2.53762        19.40050
   S       -9.89999         1.50237        21.77622
   C       -8.71580         1.33103        23.04475
   C       -7.47073         1.73234        22.69709
  Br       -9.23479         0.63264        24.70702
   H       -6.56463         5.70115         6.23225
   H       -2.35601         3.80758         8.17596
   H       -6.95156         6.78760         8.79418
   H       -2.65156         1.93622         3.03007
   H       -6.86278         3.14166         0.15616
   H       -5.49202         1.04275        -0.89975
   H       -3.23002         0.03423        -0.19788
   H       -1.84748        -1.02672         1.19640
   H       -1.13206        -1.99302         3.35898
   H       -1.68273        -1.96564         5.86823
   H       -2.52497        -1.49327         8.00673
   H       -3.59206        -0.33855        10.04288
   H       -5.27505         1.39079        10.65414
   H       -9.19885         4.24660         7.88345
   H       -9.92602         5.37891        10.05062
   H       -8.53993         5.78951        11.07173
   H       -9.56574         4.43507        11.50198
   H       -7.45440         3.89630        12.40074
   H       -4.63060         3.18348        11.48028
   H       -4.01001         3.73105        13.72637
   H       -6.93399         3.16163        14.41553
   H       -4.43524         3.85286        16.07253
   H       -5.33597         2.73457        21.09008
   H       -9.86014         2.45833        18.95751
   H       -6.62163         1.69496        23.35491
*
