# ORCA input file
# SCF done       -183.190511455884          0.000452055322
! CAM-B3LYP def2-SVP def2/J RIJCOSX Grid4 TightSCF
%maxcore 5000
%tddft
    Mode sTDDFT
    Ethresh 5.0
    maxcore 5000
end

%pal
  nprocs 6
  end
* xyz 0 1
   C      -15.05123         4.22959        -0.88037
   C      -15.94584         4.99061        -1.58916
   C      -17.30001         5.14410        -1.22989
   N      -18.41200         5.29495        -0.98617
   C      -15.64762         5.67706        -2.78304
   N      -15.46742         6.25620        -3.75844
   C      -15.33911         3.51596         0.36074
   C      -14.23133         2.69676         0.68785
   C      -14.16474         1.96333         1.84650
   C      -15.22241         2.08470         2.75368
   C      -16.32465         2.90612         2.42046
   C      -16.41161         3.61350         1.22719
   S      -17.49453         2.95466         3.70512
   C      -16.48993         1.90067         4.66246
   C      -15.34531         1.51707         4.05183
  Br      -17.04495         1.41612         6.38282
   C      -13.17199         2.89320        -0.32312
   O      -12.16231         2.24028        -0.46791
   C      -13.65144         4.01071        -1.18194
   C      -12.87011         4.68887        -2.07263
   C      -11.44298         4.66326        -2.06892
   C      -10.65330         4.63703        -0.93669
   C       -9.17685         4.49260        -0.93324
   C       -8.43480         4.46254        -2.12946
   C       -9.01684         4.59837        -3.34264
   S      -10.70306         4.76672        -3.64305
   N       -8.67660         4.40531         0.28138
   C       -9.73581         4.51431         1.13514
   C      -10.95243         4.69090         0.42712
   S      -12.28743         4.88008         1.48879
   C      -11.24367         4.58122         2.87977
   C       -9.91279         4.44265         2.51728
   C      -11.88394         4.45991         4.13001
   C      -11.27987         4.25503         5.33199
   C      -11.99174         4.07449         6.53526
   S      -13.72727         3.89912         6.55607
   C      -13.75544         3.81690         8.30222
   C      -12.45787         3.88214         8.81723
   C      -11.47946         4.01761         7.83060
   C      -10.01391         4.08030         8.13489
   C       -9.76223         4.27523         9.62740
   C      -10.65172         3.32692        10.44529
   N      -10.35179         3.28596        11.86469
   C      -12.11183         3.74943        10.26493
   C      -15.00388         3.71070         8.94272
   C      -15.27413         4.06918        10.23668
   C      -16.53281         3.95314        10.83110
   C      -16.84165         4.50957        12.05439
   C      -18.06738         4.44970        12.75032
   C      -18.09130         5.17193        13.91018
   C      -16.88869         5.85188        14.18279
   S      -15.70319         5.50617        12.94607
   C      -16.61381         6.73849        15.21220
   C      -17.45750         7.15337        16.26040
   C      -16.90431         8.10625        17.06580
   C      -15.59719         8.49827        16.69598
   S      -15.07947         7.57715        15.29772
   C      -14.85370         9.47825        17.31654
   C      -13.59049         9.95642        16.96382
   S      -12.75794         9.38354        15.53793
   C      -11.50045        10.51471        15.72361
   C      -11.66683        11.31617        16.83574
   C      -12.84448        10.98726        17.58147
   C      -13.13614        11.69181        18.77258
   C      -12.29404        12.73507        19.13964
   C      -11.14972        13.06766        18.37775
   C      -10.82524        12.36955        17.25774
   O      -12.48149        13.46569        20.26377
   C      -14.22992        11.29639        19.67189
   C      -15.16902        12.11621        20.12892
   H      -13.30109         1.35709         2.07065
   H      -17.26886         4.23355         1.02376
   H      -14.61000         0.87375         4.49939
   H      -13.33308         5.29852        -2.83822
   H       -7.36443         4.34275        -2.05615
   H       -8.44544         4.59469        -4.25670
   H       -9.12233         4.25844         3.22041
   H      -12.96611         4.51471         4.10722
   H      -10.20162         4.23684         5.39517
   H       -9.54910         4.89185         7.56981
   H       -9.54968         3.14427         7.80588
   H       -9.98745         5.30697         9.91071
   H       -8.70823         4.08745         9.84742
   H      -10.52429         2.30619        10.06399
   H      -10.43975         4.21149        12.27202
   H       -9.40256         2.96606        12.02115
   H      -12.25626         4.70939        10.77248
   H      -12.76469         3.01979        10.74666
   H      -15.82904         3.37980         8.32562
   H      -14.50217         4.53032        10.83461
   H      -17.31532         3.42264        10.30555
   H      -18.89820         3.88041        12.37235
   H      -18.94480         5.24303        14.56039
   H      -18.44523         6.74957        16.39157
   H      -17.40176         8.54958        17.91066
   H      -15.33372         9.96817        18.15201
   H      -10.70183        10.55081        15.00981
   H      -10.54175        13.88282        18.73600
   H       -9.94245        12.60468        16.68442
   H      -13.26015        13.13880        20.74016
   H      -14.19836        10.26505        20.00623
   H      -15.25641        13.13551        19.78620
   H      -15.92131        11.78387        20.82462
*
