# ORCA input file
# SCF done       -179.450656774672          0.000684299773
! CAM-B3LYP def2-SVP def2/J RIJCOSX Grid4 TightSCF
%maxcore 5000
%tddft
    Mode sTDDFT
    Ethresh 5.0
    maxcore 5000
end

%pal
  nprocs 6
  end
* xyz 0 1
   C      -15.03662         1.06609        -3.81043
   C      -15.56512        -0.09179        -3.30199
   C      -16.91840        -0.46724        -3.42500
   N      -18.00786        -0.82158        -3.49542
   C      -14.81628        -1.05346        -2.59349
   N      -14.23973        -1.85877        -2.01336
   C      -15.76969         2.08783        -4.55442
   C      -14.87262         3.12595        -4.91850
   C      -15.26918         4.23421        -5.62766
   C      -16.61524         4.32535        -5.99617
   C      -17.50307         3.28554        -5.62982
   C      -17.10136         2.16393        -4.91262
   S      -19.11791         3.59968        -6.18458
   C      -18.58807         5.10314        -6.89122
   C      -17.26845         5.35835        -6.72160
  Br      -19.82419         6.19340        -7.78540
   C      -13.53684         2.79463        -4.41341
   O      -12.50674         3.45468        -4.53610
   C      -13.66447         1.51004        -3.72131
   C      -12.58651         0.91565        -3.10855
   N      -11.39117         1.51227        -3.14898
   C      -10.22919         1.09436        -2.58870
   S      -10.13039        -0.36487        -1.65468
   C       -8.45051        -0.04014        -1.37743
   N       -7.72132        -0.95746        -0.60615
   O       -6.54406        -0.71938        -0.41507
   O       -8.32875        -1.92378        -0.18345
   C       -8.00438         1.11281        -1.96440
   C       -9.01465         1.78919        -2.67605
   C       -8.85518         3.01639        -3.40863
   C       -7.76698         3.81017        -3.37380
   C       -7.69461         5.01938        -4.13726
   C       -6.71260         5.93710        -4.12537
   C       -5.49136         5.90468        -3.26914
   C       -6.87983         7.19732        -4.94156
   N       -7.52807         8.22036        -4.14239
   C       -6.81700         9.04173        -3.31763
   C       -7.30099         9.56668        -2.17420
   C       -6.65697        10.53784        -1.34425
   C       -6.83264        10.55634         0.10711
   C       -7.57810         9.75119         0.94728
   C       -7.50998         9.97832         2.31551
   C       -6.70756        10.98288         2.83267
   C       -5.95272        11.79578         1.99664
   C       -6.01672        11.57595         0.63526
   C       -5.38907        12.26390        -0.48824
   C       -5.80422        11.56528        -1.67767
   C       -5.31450        11.89455        -3.04725
   C       -4.61456        13.37624        -0.37884
   C       -4.18586        14.21221        -1.44561
   C       -3.37857        15.41281        -1.27692
   C       -2.72037        15.81812        -0.14791
   C       -1.96643        17.00885        -0.06506
   N       -1.34313        17.96367         0.06678
   C       -2.66758        15.12181         1.07931
   N       -2.55215        14.62427         2.10768
   C       -3.36975        16.11645        -2.55892
   C       -4.13153        15.33949        -3.47357
   C       -4.60489        14.16140        -2.76887
   O       -5.34213        13.27082        -3.42614
   C       -4.32429        15.71769        -4.78000
   C       -3.74176        16.92167        -5.20026
   C       -2.98470        17.68309        -4.28425
   C       -2.78378        17.29551        -2.96010
   S       -2.35891        19.12971        -5.01583
   C       -3.11373        18.69705        -6.52423
   C       -3.79936        17.52913        -6.48395
  Br       -2.92770        19.82321        -8.01362
   H      -14.56448         5.00773        -5.88976
   H      -17.81616         1.39971        -4.65737
   H      -16.77572         6.23856        -7.09222
   H      -12.65885        -0.02726        -2.58234
   H      -11.39838         2.41174        -3.66570
   H       -6.98222         1.43306        -1.88414
   H       -9.68629         3.32344        -4.03009
   H       -6.92680         3.54796        -2.75014
   H       -8.54116         5.19464        -4.79180
   H       -5.45970         5.03693        -2.61960
   H       -5.45559         6.80217        -2.64893
   H       -4.59903         5.90316        -3.89574
   H       -7.50184         7.00881        -5.82133
   H       -5.91206         7.58309        -5.26852
   H       -8.43568         7.94533        -3.78861
   H       -5.81855         9.26714        -3.66536
   H       -8.25776         9.20765        -1.81483
   H       -8.20480         8.96181         0.55834
   H       -8.08882         9.36058         2.98666
   H       -6.66575        11.13404         3.90109
   H       -5.32374        12.56913         2.41172
   H       -4.27989        11.53677        -3.16978
   H       -5.95121        11.41292        -3.79417
   H       -4.36941        13.70829         0.61790
   H       -4.90522        15.11514        -5.45959
   H       -2.19498        17.91051        -2.30040
   H       -4.32483        17.11391        -7.32456
*
