# ORCA input file
# SCF done       -217.331454997395          0.000919044687
! CAM-B3LYP def2-SVP def2/J RIJCOSX Grid4 TightSCF
%maxcore 5000
%tddft
    Mode sTDDFT
    Ethresh 5.0
    maxcore 5000
end

%pal
  nprocs 6
  end
* xyz 0 1
   C      -10.51745         0.05238        -4.42598
   C      -10.18343         0.62464        -5.62443
   C      -10.25951        -0.04176        -6.86556
   N      -10.28938        -0.53755        -7.90010
   C       -9.75917         1.96045        -5.79032
   N       -9.43523         3.04040        -6.00613
   C      -11.08449        -1.27662        -4.24256
   C      -11.44790        -1.43104        -2.88213
   C      -12.02993        -2.57646        -2.39621
   C      -12.26811        -3.61965        -3.29681
   C      -11.89627        -3.45897        -4.65324
   C      -11.30549        -2.30144        -5.14397
   S      -12.27409        -4.87223        -5.59064
   C      -12.92096        -5.64705        -4.16910
   C      -12.85675        -4.88941        -3.04827
  Br      -13.61768        -7.38322        -4.29699
   C      -11.09322        -0.21006        -2.13701
   O      -11.19970        -0.03996        -0.93811
   C      -10.48799         0.70385        -3.12836
   C       -9.85733         1.87908        -2.84274
   C       -9.94101         2.66147        -1.66442
   S       -8.49561         3.54174        -1.23457
   C       -9.26536         4.22119         0.16160
   C      -10.59346         3.82348         0.24609
   C      -10.98777         2.96457        -0.79619
   C      -12.40972         2.53509        -0.94010
   S      -12.99646         2.54343        -2.68533
   C      -13.34757         3.37572        -0.08208
   C      -12.80176         3.45244         1.33725
   C      -11.51629         4.27313         1.33650
   C       -8.57243         5.08270         1.05249
   C       -7.30991         5.53006         0.86168
   C       -6.64418         6.41085         1.75419
   O       -7.22517         6.80916         2.92291
   C       -5.41237         7.02394         1.65462
   C       -4.21728         7.16500         0.81804
   O       -3.92313         6.66641        -0.23581
   N       -3.42088         8.05731         1.53623
   C       -3.95832         8.50959         2.73958
   O       -3.42454         9.27884         3.49431
   C       -5.25669         7.83125         2.81048
   C       -6.39360         7.67076         3.57002
   C       -6.75113         8.23496         4.83371
   C       -7.83528         7.87049         5.53236
   C       -8.21371         8.48733         6.80116
   C       -8.55992         9.80108         6.83510
   S       -9.10022        10.35701         8.37167
   C       -8.81768         8.78038         9.03664
   C       -8.32411         7.86405         8.09635
   C       -7.94504         6.57226         8.53113
   C       -7.29639         5.65085         7.53065
   C       -5.78375         5.88130         7.48192
   C       -8.09642         6.20535         9.86190
   C       -7.61889         4.85348        10.32907
   C       -8.77211         3.85273        10.42810
   C       -8.69885         7.09700        10.78822
   C       -9.08077         6.93977        12.18004
   C       -9.63173         8.09101        12.68586
   S       -9.71487         9.39236        11.59061
   C       -9.03026         8.38895        10.34813
   C       -8.94759         5.79384        13.03461
   C       -9.74648         5.52438        14.09565
   C       -9.60423         4.38260        14.92670
   C       -8.52162         3.58401        15.15065
   C       -7.10529         3.71956        14.88247
   C       -6.38192         4.88392        14.82378
   C       -4.98427         4.93451        14.65133
   N       -3.85274         5.03007        14.48196
   C       -6.94054         6.16621        14.99150
   N       -7.33877         7.23241        15.14004
   C       -6.52006         2.38309        14.95202
   C       -7.48384         1.49161        15.48573
   C       -8.74736         2.22285        15.70920
   O       -9.77056         1.80092        16.19775
   C       -7.21367         0.16453        15.71519
   C       -5.93755        -0.30756        15.38958
   C       -4.98894         0.58659        14.83816
   C       -5.25852         1.93134        14.61505
   S       -3.48320        -0.20975        14.49561
   C       -4.13650        -1.71120        15.09543
   C       -5.41677        -1.62346        15.52781
  Br       -3.06741        -3.25234        15.08983
   H      -12.29730        -2.66468        -1.35480
   H      -11.03577        -2.22831        -6.18427
   H      -13.20905        -5.21156        -2.08542
   H       -9.15998         2.26389        -3.57822
   H      -12.49221         1.48110        -0.65027
   H      -12.78032         3.83990        -2.90090
   H      -14.34054         2.92518        -0.09601
   H      -13.42835         4.38375        -0.49815
   H      -13.53444         3.91249         2.00137
   H      -12.59690         2.44353         1.70022
   H      -11.01558         4.18553         2.30317
   H      -11.75632         5.33099         1.18483
   H       -9.11326         5.40758         1.93062
   H       -6.74295         5.24839        -0.01414
   H       -2.51421         8.35548         1.20518
   H       -6.05468         8.96588         5.21790
   H       -8.51070         7.12941         5.12194
   H       -8.56387        10.48034         6.00487
   H       -7.70550         5.84490         6.54203
   H       -7.50873         4.60792         7.76230
   H       -5.56820         6.90432         7.18352
   H       -5.32315         5.20861         6.76203
   H       -5.33065         5.71099         8.45564
   H       -7.11691         4.96553        11.28995
   H       -6.86758         4.45883         9.64921
   H       -9.56189         4.22525        11.07634
   H       -8.41906         2.90200        10.82261
   H       -9.20041         3.67918         9.44336
   H       -9.94406         8.24800        13.69933
   H       -8.17560         5.07820        12.80801
   H      -10.61418         6.14027        14.28415
   H      -10.51217         4.03413        15.41091
   H       -7.96231        -0.48975        16.13340
   H       -4.50568         2.57366        14.18891
   H       -5.97277        -2.45138        15.92815
*
