# ORCA input file
# SCF done       -237.544214410950          0.000749152133
! CAM-B3LYP def2-SVP def2/J RIJCOSX Grid4 TightSCF
%maxcore 5000
%tddft
    Mode sTDDFT
    Ethresh 5.0
    maxcore 5000
end

%pal
  nprocs 6
  end
* xyz 0 1
   C      -12.73361         0.09616        -7.43192
   C      -13.88643        -0.61199        -7.21298
   C      -14.70507        -1.13096        -8.23669
   N      -15.40256        -1.57782        -9.03095
   C      -14.39733        -0.90620        -5.93233
   N      -14.84492        -1.16402        -4.90715
   C      -12.17451         0.44013        -8.73762
   C      -10.98017         1.18165        -8.54625
   C      -10.22073         1.64913        -9.59065
   C      -10.66329         1.38117       -10.88949
   C      -11.85623         0.64196       -11.07276
   C      -12.62119         0.16272       -10.01503
   S      -12.21913         0.42338       -12.75683
   C      -10.78543         1.31697       -13.18668
   C      -10.06884         1.75666       -12.12460
  Br      -10.36579         1.58614       -14.99434
   C      -10.74430         1.34133        -7.10750
   O       -9.81326         1.92698        -6.56419
   C      -11.84848         0.64998        -6.43305
   C      -11.92054         0.58478        -5.06269
   N      -11.00059         1.20415        -4.31630
   C      -10.87933         1.18251        -2.96317
   S      -11.77512         0.07129        -1.97396
   C      -10.90893         0.64554        -0.58707
   N      -11.21533         0.07926         0.65902
   O      -10.59655         0.47917         1.62613
   O      -12.07922        -0.77847         0.67273
   C       -9.99299         1.62267        -0.87513
   C       -9.97350         1.96241        -2.23964
   C       -9.12548         2.99563        -2.79545
   C       -9.45265         3.77848        -3.83453
   C       -8.57242         4.77513        -4.41835
   C       -7.19242         4.53076        -4.47202
   C       -6.30544         5.40800        -5.05763
   C       -6.76120         6.59380        -5.62420
   C       -8.10919         6.86070        -5.57860
   C       -9.02015         5.97134        -4.98750
   N      -10.29231         6.52351        -5.03773
   C      -11.52563         5.97011        -4.54674
   C      -10.29047         7.74072        -5.66682
   O      -11.25772         8.44510        -5.82206
   C       -8.86555         8.03134        -6.12162
   C       -8.83504         8.08378        -7.66275
   C       -9.09925         6.68744        -8.22772
   O      -10.06366         5.98471        -8.03561
   N       -8.02059         6.33790        -8.99243
   C       -7.90941         5.06910        -9.65657
   C       -7.05247         7.33099        -8.99596
   C       -5.82761         7.34332        -9.62399
   C       -4.99640         8.46508        -9.45957
   C       -5.44732         9.54240        -8.68416
   C       -6.68798         9.52406        -8.06963
   C       -7.49078         8.41399        -8.22149
   C       -3.70953         8.46847       -10.10645
   C       -2.69922         9.34205        -9.86852
   C       -1.46229         9.31695       -10.54307
   C       -0.43118        10.17654       -10.26883
   C        0.82969        10.24845       -10.91346
   C        1.65548        11.21140       -10.42055
   C        1.09929        11.94865        -9.34880
   S       -0.51457        11.39169        -8.99837
   C        1.68962        12.96520        -8.61852
   C        2.96204        13.54550        -8.80341
   C        3.25510        14.52270        -7.89774
   C        2.23354        14.75686        -6.94989
   S        0.87754        13.70089        -7.25348
   C        2.27976        15.64745        -5.89398
   C        1.24275        15.81088        -4.98365
   C        1.21971        16.59292        -3.84772
   C       -0.08333        16.96206        -3.25341
   O       -1.17009        16.50259        -3.53385
   C        0.21759        18.03782        -2.28399
   C       -0.64241        18.78225        -1.53154
   C       -0.12187        19.79217        -0.69020
   C        1.28486        20.01243        -0.65325
   C        1.79753        21.02696         0.17908
   C        0.95361        21.78459         0.94201
   C       -0.43675        21.56369         0.90713
   C       -0.96502        20.58842         0.10828
   F       -1.24219        22.32171         1.66644
   F        1.44446        22.74936         1.73374
   C        2.15223        19.21692        -1.43865
   C        1.62637        18.23824        -2.23696
   C        2.26296        17.25222        -3.11384
   C        3.59356        16.90328        -3.05858
   C        4.14534        15.75804        -3.66429
   N        4.64513        14.81581        -4.09164
   C        4.55251        17.58949        -2.28905
   N        5.38352        18.12301        -1.70187
   H       -9.31246         2.20166        -9.40969
   H      -13.52091        -0.39739       -10.20725
   H       -9.15910         2.32261       -12.20739
   H      -12.70857         0.05461        -4.54321
   H      -10.26647         1.69407        -4.86336
   H       -9.37936         2.08292        -0.12189
   H       -8.19711         3.15929        -2.26608
   H      -10.42957         3.69055        -4.28184
   H       -6.82445         3.60159        -4.06485
   H       -5.25283         5.17184        -5.08230
   H       -6.07517         7.28748        -6.08596
   H      -11.41387         5.62861        -3.51694
   H      -11.86820         5.15339        -5.18526
   H      -12.26523         6.77110        -4.58814
   H       -8.52398         8.99099        -5.72583
   H       -9.61713         8.77598        -7.99194
   H       -8.84388         4.53705        -9.47994
   H       -7.07668         4.49222        -9.24743
   H       -7.76366         5.20979       -10.72961
   H       -5.49400         6.50776       -10.21988
   H       -4.82527        10.41539        -8.57336
   H       -7.01749        10.36731        -7.48196
   H       -3.54486         7.68145       -10.83237
   H       -2.81250        10.11045        -9.11586
   H       -1.31375         8.58576       -11.32680
   H        1.08198         9.58581       -11.72243
   H        2.64668        11.40601       -10.78825
   H        3.62252        13.23520        -9.59292
   H        4.17860        15.07267        -7.87055
   H        3.17714        16.24159        -5.80378
   H        0.29769        15.32750        -5.21596
   H       -1.70618        18.60485        -1.57652
   H        2.86046        21.20682         0.22035
   H       -2.03225        20.43177         0.09246
   H        3.21205        19.40935        -1.39163
*
