# ORCA input file
# SCF done       -192.875452575280          0.000750160120
! CAM-B3LYP def2-SVP def2/J RIJCOSX Grid4 TightSCF
%maxcore 5000
%tddft
    Mode sTDDFT
    Ethresh 5.0
    maxcore 5000
end

%pal
  nprocs 6
  end
* xyz 0 1
   C       -8.15198         5.58454         1.58206
   C       -7.28498         4.86996         0.79709
   C       -5.88218         4.99219         0.85691
   N       -4.73832         5.08540         0.82560
   C       -7.68170         4.00752        -0.24215
   N       -7.95627         3.31095        -1.11372
   C       -7.78085         6.51657         2.64005
   C       -8.95301         7.13793         3.14570
   C       -8.91970         8.08412         4.14155
   C       -7.67167         8.43478         4.66630
   C       -6.50843         7.80586         4.16039
   C       -6.54222         6.84795         3.15407
   S       -5.07487         8.38726         4.94883
   C       -6.04170         9.45450         5.93201
   C       -7.37155         9.37941         5.68500
  Br       -5.20630        10.56531         7.18972
   C      -10.11697         6.61630         2.42173
   O      -11.29431         6.91587         2.56807
   C       -9.59083         5.63665         1.45934
   C      -10.40420         4.99871         0.56533
   N      -11.71993         5.26909         0.51105
   C      -12.59335         4.84569        -0.45074
   S      -14.24513         4.58772         0.01798
   C      -14.59749         4.00567        -1.57482
   N      -15.91637         3.61249        -1.85931
   O      -16.15189         3.20251        -2.97778
   O      -16.72235         3.71551        -0.95358
   C      -13.51101         4.01037        -2.40478
   C      -12.34771         4.51941        -1.78946
   C      -11.12965         4.70790        -2.54400
   C      -10.17683         5.62489        -2.28924
   C       -8.93492         5.69592        -2.98069
   O       -8.70166         5.01736        -4.13113
   C       -7.76142         6.30554        -2.58504
   C       -7.13824         7.09344        -1.52042
   O       -7.60732         7.57590        -0.51644
   N       -5.80583         7.16516        -1.90089
   C       -5.49263         6.50035        -3.08840
   O       -4.38813         6.43469        -3.57068
   C       -6.76928         5.94972        -3.52964
   C       -7.39291         5.15406        -4.48442
   C       -6.90989         4.54883        -5.66230
   C       -5.57892         4.59530        -5.97415
   C       -4.94051         4.03565        -7.08682
   C       -5.44283         3.61760        -8.33109
   C       -6.72572         3.71200        -8.90473
   C       -6.93316         3.21190       -10.15954
   C       -5.88730         2.61395       -10.89632
   C       -4.62129         2.53212       -10.38825
   C       -4.36965         3.04614        -9.10452
   C       -3.18585         3.05699        -8.34474
   C       -3.48631         3.79298        -7.11375
   C       -2.58952         4.33720        -6.28180
   C       -1.96425         2.49124        -8.72892
   C       -0.92678         2.05398        -7.94195
   C       -0.86448         1.68423        -6.54899
   C       -1.90965         1.24095        -5.77547
   C       -1.76715         0.79469        -4.44774
   N       -1.69969         0.43587        -3.35899
   C       -3.22332         1.07514        -6.25546
   N       -4.29534         0.86183        -6.60778
   C        0.54704         1.59677        -6.18427
   C        1.32602         1.69239        -7.36517
   C        0.42842         1.90578        -8.52081
   O        0.73307         1.98779        -9.69117
   C        2.69585         1.59964        -7.35235
   C        3.32626         1.41586        -6.11632
   C        2.53984         1.33922        -4.94257
   C        1.15254         1.42455        -4.95532
   S        3.52286         1.12263        -3.52665
   C        4.95752         1.13105        -4.51760
   C        4.71550         1.29091        -5.84019
  Br        6.63918         0.92958        -3.71191
   H       -9.82677         8.54353         4.50197
   H       -5.62885         6.39718         2.80357
   H       -8.11091         9.96634         6.19864
   H      -10.02589         4.26523        -0.13159
   H      -12.05587         5.87853         1.27319
   H      -13.56158         3.68864        -3.42951
   H      -11.01074         4.06016        -3.40138
   H      -10.26058         6.33019        -1.47544
   H       -5.10119         7.62387        -1.34059
   H       -7.62447         4.00325        -6.25688
   H       -4.93361         5.06327        -5.24317
   H       -7.52929         4.19090        -8.36926
   H       -7.91220         3.27609       -10.61062
   H       -6.10055         2.23220       -11.88359
   H       -3.82023         2.09215       -10.96203
   H       -1.53096         4.20904        -6.43830
   H       -2.87647         4.94624        -5.44074
   H       -1.77835         2.41096        -9.79621
   H        3.26548         1.66451        -8.26603
   H        0.59294         1.36552        -4.03650
   H        5.48318         1.31947        -6.59168
*
