# ORCA input file
# SCF done       -155.066538281081          0.000571187590
! CAM-B3LYP def2-SVP def2/J RIJCOSX Grid4 TightSCF
%maxcore 5000
%tddft
    Mode sTDDFT
    Ethresh 5.0
    maxcore 5000
end

%pal
  nprocs 6
  end
* xyz 0 1
   C       12.11030        -7.39499        -1.72191
   C       10.83118        -7.20380        -1.37589
   C       10.10727        -7.83055        -0.30507
   C        8.81876        -7.44440        -0.19919
   C        8.40995        -6.48453        -1.17091
   S        9.75317        -6.08672        -2.22847
   C        7.16817        -5.92712        -1.32021
   C        5.99982        -6.17418        -0.54930
   C        4.90907        -5.49169        -0.96579
   C        5.12471        -4.64496        -2.09941
   S        6.81145        -4.77611        -2.59786
   C        4.17596        -3.84008        -2.64427
   C        4.28038        -2.95187        -3.77739
   C        5.22704        -3.16761        -4.78327
   C        5.33980        -2.32635        -5.87527
   C        6.38933        -2.57831        -6.92559
   N        5.96719        -2.06723        -8.22069
   C        4.47859        -1.24160        -5.98270
   C        3.52267        -1.01991        -5.00824
   C        3.40366        -1.85537        -3.90966
   C        2.41305        -1.50982        -2.82479
   N        3.07858        -1.09008        -1.59758
   C        3.74603         0.10134        -1.55995
   S        5.17671         0.26666        -0.57450
   C        5.37462         1.96815        -0.94388
   C        4.36343         2.36654        -1.81494
   C        3.45938         1.30399        -2.14974
   S        2.16944         1.83240        -3.20697
   C        2.85388         3.43509        -3.17979
   N        2.19141         4.41842        -3.92194
   O        2.65272         5.54883        -3.91348
   O        1.19163         4.06774        -4.53176
   C        3.98237         3.58119        -2.42272
   C        6.46227         2.66143        -0.35423
   C        6.89194         3.89793        -0.68322
   C        8.01288         4.56696        -0.04774
   C        8.30977         4.33164         1.29564
   C        9.35287         4.97946         1.93353
   C        9.64399         4.70368         3.38580
   N        8.43556         4.31731         4.09811
   C       10.12655         5.88051         1.21275
   C        9.85844         6.11200        -0.12436
   C        8.81086         5.47345        -0.76823
   C        8.56773         5.72775        -2.23055
   N        8.61186         4.48718        -2.97668
   C        8.39753         4.36711        -4.30358
   C        8.29186         5.33832        -5.25088
   C        8.09260         5.08639        -6.63839
   C        8.03272         6.19532        -7.41445
   C        8.18444         7.41487        -6.70309
   S        8.39441         7.09036        -4.99524
   C        8.18825         8.69120        -7.20617
   C        8.04010         9.09105        -8.56127
   C        8.09016        10.42729        -8.76056
   C        8.28313        11.20053        -7.56798
   S        8.39830        10.10666        -6.18134
   C        8.36880        12.53380        -7.45820
   H       12.72999        -8.08476        -1.17662
   H       12.55675        -6.87256        -2.54789
   H       10.59067        -8.54628         0.33612
   H        8.13352        -7.81376         0.54326
   H        6.00858        -6.84917         0.28774
   H        3.93885        -5.55720        -0.50428
   H        3.21119        -3.87985        -2.15282
   H        5.87147        -4.03067        -4.72158
   H        6.63652        -3.65387        -6.93386
   H        7.30091        -2.03765        -6.64304
   H        5.13886        -2.56084        -8.53740
   H        6.69728        -2.20806        -8.90978
   H        4.56474        -0.58413        -6.83273
   H        2.85306        -0.17755        -5.10304
   H        1.77661        -2.36164        -2.57160
   H        1.76764        -0.69478        -3.15635
   H        3.58325        -1.84052        -1.14226
   H        4.47322         4.53029        -2.31885
   H        7.00565         2.09730         0.39288
   H        6.39959         4.43422        -1.47944
   H        7.69811         3.65555         1.87141
   H       10.15003         5.58267         3.82170
   H       10.34282         3.86020         3.44932
   H        7.76510         5.07927         4.08381
   H        8.64955         4.10783         5.06660
   H       10.94173         6.39965         1.69528
   H       10.47215         6.80775        -0.67763
   H        9.33339         6.40612        -2.61793
   H        7.59479         6.22062        -2.37421
   H        8.56192         3.64744        -2.42208
   H        8.33382         3.34330        -4.65081
   H        7.99829         4.08009        -7.00846
   H        7.88330         6.18094        -8.47900
   H        7.90039         8.36701        -9.34500
   H        7.99686        10.91088        -9.71698
   H        8.29105        13.16098        -8.32860
   H        8.51199        13.01579        -6.50855
*
