# ORCA input file
# SCF done       -189.516095854166          0.000727282145
! CAM-B3LYP def2-SVP def2/J RIJCOSX Grid4 TightSCF
%maxcore 5000
%tddft
    Mode sTDDFT
    Ethresh 5.0
    maxcore 5000
end

%pal
  nprocs 6
  end
* xyz 0 1
   C       -0.97897        -1.19099        -2.72562
   C       -1.23172        -2.31376        -1.96437
   C       -0.24153        -3.21773        -1.53811
   N        0.51477        -3.99534        -1.15673
   C       -2.49384        -2.72926        -1.50092
   N       -3.47868        -3.14743        -1.07888
   C        0.34605        -0.78445        -3.19698
   C        0.21052         0.40872        -3.94581
   C        1.27784         1.04579        -4.52635
   C        2.54647         0.47716        -4.36054
   C        2.67232        -0.71364        -3.61147
   C        1.58951        -1.35872        -3.02312
   S        4.32571        -1.24627        -3.53050
   C        4.81613         0.12256        -4.49277
   C        3.79823         0.93669        -4.85630
  Br        6.62839         0.34774        -4.92643
   C       -1.21640         0.80260        -3.97407
   O       -1.67466         1.78199        -4.53431
   C       -1.92755        -0.22487        -3.19819
   C       -3.29892        -0.23336        -2.97597
   C       -4.18403         0.71523        -3.45222
   C       -5.55400         0.66804        -3.21374
   C       -6.51808         1.58077        -3.66752
   C       -7.80146         1.27403        -3.28472
   C       -7.89120         0.10922        -2.51398
   S       -6.31462        -0.59702        -2.27688
   C       -9.04433        -0.47895        -1.97993
   C      -10.36742        -0.04705        -2.10989
   C      -11.27655        -0.86397        -1.47550
   C      -10.69981        -1.95758        -0.82538
   S       -8.96512        -1.93677        -1.03025
   C      -11.37210        -2.95672        -0.11328
   C      -10.77071        -4.00782         0.52554
   C      -11.46150        -5.01485         1.20964
   C      -10.91186        -6.10429         1.88929
   C      -11.84692        -6.94510         2.45215
   C      -13.16609        -6.54351         2.22869
   S      -13.20440        -5.06687         1.29881
   C      -14.34776        -7.17760         2.62632
   C      -14.48979        -8.36685         3.35315
   C      -15.79615        -8.74151         3.54763
   C      -16.73578        -7.86331         2.98326
   S      -15.90786        -6.52889         2.20284
   C      -18.11646        -7.98603         2.97838
   C      -18.97161        -7.07064         2.37831
   C      -20.33750        -7.21462         2.30151
   C      -21.16885        -6.28416         1.66715
   O      -20.67605        -5.13652         1.13206
   C      -21.69620        -4.44825         0.54965
   C      -22.88211        -5.16621         0.73191
   C      -22.55254        -6.32822         1.44209
   O      -23.38631        -7.31059         1.83617
   O      -24.15505        -4.86471         0.35915
   C      -21.38433        -3.21258        -0.05761
   C      -22.17798        -2.45539        -0.86638
   C      -21.75358        -1.21909        -1.39982
   C      -22.47855        -0.48017        -2.28107
   C      -22.06360         0.75564        -2.82182
   S      -20.58981         1.57118        -2.35045
   C      -20.85594         2.91848        -3.42061
   C      -22.03838         2.73565        -4.13235
   C      -22.69846         1.52436        -3.77795
   S      -24.16132         1.28092        -4.67154
   C      -23.88863         2.78885        -5.53364
   C      -24.80684         3.26577        -6.57393
   O      -24.61209         4.31980        -7.13812
   C      -25.97503         2.35560        -6.87752
   C      -26.87523         2.92320        -7.96497
   C      -22.74998         3.42928        -5.14193
   C      -19.88783         3.97169        -3.42219
   C      -19.97992         5.13557        -4.06868
   H        1.14132         1.95465        -5.09131
   H        1.74048        -2.26536        -2.46183
   H        3.92138         1.82465        -5.44922
   H       -3.71410        -1.04212        -2.38733
   H       -3.80832         1.53770        -4.04354
   H       -6.24910         2.43503        -4.26268
   H       -8.66374         1.86168        -3.54372
   H      -10.63418         0.83739        -2.65924
   H      -12.33883        -0.69413        -1.46907
   H      -12.45205        -2.87738        -0.07880
   H       -9.69119        -4.08584         0.50779
   H       -9.84890        -6.25524         1.95276
   H      -11.60058        -7.83159         3.00790
   H      -13.64361        -8.92360         3.71323
   H      -16.09822        -9.62737         4.07780
   H      -18.53730        -8.85887         3.45980
   H      -18.53206        -6.19200         1.92402
   H      -20.82876        -8.08159         2.71683
   H      -24.27952        -7.08279         1.54533
   H      -24.18902        -3.96396         0.02000
   H      -20.37752        -2.86951         0.14030
   H      -23.16083        -2.79680        -1.16517
   H      -20.78524        -0.84936        -1.08759
   H      -23.44093        -0.83575        -2.62840
   H      -26.53671         2.20200        -5.95172
   H      -25.57550         1.38255        -7.17767
   H      -27.27605         3.88509        -7.65563
   H      -27.70005         2.24551        -8.16936
   H      -26.30720         3.07458        -8.87932
   H      -22.45217         4.35681        -5.59393
   H      -19.01420         3.76963        -2.81399
   H      -20.83133         5.40197        -4.66767
   H      -19.19196         5.86481        -4.00244
*
