# ORCA input file
# SCF done       -166.600502500045          0.000916877393
! CAM-B3LYP def2-SVP def2/J RIJCOSX Grid4 TightSCF
%maxcore 5000
%tddft
    Mode sTDDFT
    Ethresh 5.0
    maxcore 5000
end

%pal
  nprocs 6
  end
* xyz 0 1
   C       -6.70785        -2.58691         3.13901
   C       -5.75686        -3.49148         2.73205
   C       -5.78460        -4.86400         3.04899
   N       -5.75847        -5.99180         3.26672
   C       -4.61826        -3.18479         1.96001
   N       -3.65875        -3.01965         1.34931
   C       -7.84435        -2.88817         4.00288
   C       -8.55091        -1.68788         4.25515
   C       -9.67729        -1.64055         5.03823
   C      -10.12624        -2.83718         5.60822
   C       -9.41303        -4.03114         5.35281
   C       -8.27555        -4.07940         4.55569
   S      -10.14013        -5.39298         6.15271
   C      -11.37409        -4.35200         6.80964
   C      -11.25113        -3.05235         6.45119
  Br      -12.70957        -5.07907         7.90931
   C       -7.89132        -0.56869         3.54901
   O       -8.28708         0.57792         3.50423
   C       -6.73191        -1.16909         2.84974
   C       -5.95471        -0.53089         1.91888
   C       -5.86668         0.86535         1.65721
   C       -5.68021         1.26654         0.33025
   C       -5.74919         2.58687        -0.05266
   C       -5.96751         3.61177         0.87440
   C       -6.01739         3.24560         2.26763
   C       -5.93889         1.88465         2.65751
   C       -5.84410         1.61938         4.03600
   C       -5.93791         2.64918         4.93578
   C       -6.10942         3.94718         4.44137
   N       -6.11753         4.23542         3.16770
   C       -6.11546         4.97926         0.55256
   C       -6.13703         5.61012        -0.66722
   C       -6.29130         7.01183        -0.83500
   C       -6.29650         7.43706        -2.12921
   C       -6.15096         6.39597        -3.06921
   S       -5.99969         4.85900        -2.24633
   C       -6.11626         6.46610        -4.44892
   C       -6.22584         7.59926        -5.28345
   C       -6.13873         7.30910        -6.61121
   C       -5.97467         5.93076        -6.90490
   S       -5.91467         5.01986        -5.41113
   C       -5.79444         5.41186        -8.16412
   C       -5.66813         4.07331        -8.56973
   S       -4.85666         3.76015       -10.10158
   C       -5.00772         2.02715        -9.93215
   C       -5.69083         1.73620        -8.76391
   C       -6.06454         2.86499        -8.01090
   S       -7.13250         2.57819        -6.65454
   C       -6.72729         0.80776        -6.53804
   S       -6.18925         0.16998        -8.15944
   C       -4.45919         1.18452       -10.92640
   C       -4.51035        -0.17121       -10.91193
   C       -3.93814        -0.99275       -11.91120
   O       -4.03839        -2.34230       -11.78674
   C       -3.42155        -2.92367       -12.84552
   C       -2.91370        -1.93020       -13.67187
   C       -3.24008        -0.69473       -13.07933
   O       -2.93407         0.53145       -13.55624
   O       -2.22208        -2.03855       -14.84098
   C       -3.36881        -4.34131       -12.97385
   C       -3.90194        -5.20151       -12.08164
   C       -3.84260        -6.62710       -12.21981
   C       -4.36780        -7.47560       -11.33528
   H      -10.19457        -0.70925         5.20802
   H       -7.77114        -5.01599         4.38713
   H      -11.92454        -2.27610         6.76556
   H       -5.39289        -1.15519         1.23337
   H       -5.54629         0.50534        -0.42558
   H       -5.64507         2.82528        -1.09858
   H       -5.67315         0.60838         4.37657
   H       -5.86945         2.47387         5.99819
   H       -6.21008         4.78894         5.11510
   H       -6.23749         5.62116         1.41615
   H       -6.39486         7.66078         0.01652
   H       -6.40386         8.46374        -2.43044
   H       -6.36629         8.58832        -4.88603
   H       -6.19689         8.04028        -7.39828
   H       -5.66770         6.13936        -8.95682
   H       -5.91791         0.67576        -5.81901
   H       -7.61188         0.26297        -6.21666
   H       -3.96280         1.68157       -11.74674
   H       -5.00159        -0.70291       -10.11011
   H       -2.44816         0.41425       -14.38369
   H       -2.10606        -2.96847       -15.06158
   H       -2.86173        -4.72153       -13.85237
   H       -4.40363        -4.80518       -11.21058
   H       -3.33782        -7.00669       -13.09966
   H       -4.87436        -7.12304       -10.45232
   H       -4.30834        -8.54216       -11.46337
*
