# ORCA input file
# SCF done       -156.185732497991          0.008292378071
! CAM-B3LYP def2-SVP def2/J RIJCOSX Grid4 TightSCF
%maxcore 5000
%tddft
    Mode sTDDFT
    Ethresh 5.0
    maxcore 5000
end

%pal
  nprocs 6
  end
* xyz 0 1
   C       -7.30913        -4.20866         6.73153
   C       -5.99330        -4.18058         7.15214
   C       -4.95686        -4.89747         6.53242
   N       -4.08148        -5.47694         6.06200
   C       -5.55157        -3.44469         8.26540
   N       -5.14325        -2.85150         9.16188
   C       -7.80145        -4.89573         5.53341
   C       -9.20404        -4.72858         5.45899
   C       -9.95649        -5.17550         4.40322
   C       -9.28707        -5.81207         3.35282
   C       -7.88951        -5.98911         3.43931
   C       -7.12854        -5.54372         4.51582
   S       -7.26703        -6.81451         2.04280
   C       -8.87324        -6.90730         1.37948
   C       -9.82981        -6.34741         2.15154
  Br       -9.14585        -7.77319        -0.25287
   C       -9.65209        -3.94528         6.62711
   O      -10.79301        -3.80701         7.01530
   C       -8.40361        -3.48479         7.29093
   C       -8.42293        -2.48856         8.26780
   C       -9.35540        -1.45757         8.22665
   C       -9.96334        -1.03825         7.04450
   C      -11.08481        -0.21507         6.86588
   C      -11.48335        -0.07723         5.55544
   C      -10.66400        -0.75805         4.64644
   S       -9.32114        -1.49627         5.47972
   C      -10.81198        -1.05071         3.29404
   C      -11.84924        -0.75219         2.39671
   C      -11.69309        -1.33406         1.16832
   C      -10.51644        -2.10539         1.03484
   S       -9.60971        -2.06596         2.53246
   C      -10.12107        -2.81552        -0.07598
   C       -8.92667        -3.52285        -0.25438
   S       -7.55298        -3.33813         0.81646
   C       -6.56537        -4.26246        -0.24691
   C       -7.21842        -4.71182        -1.35131
   C       -6.58677        -5.56222        -2.40139
   C       -8.59257        -4.32748        -1.35789
   C       -9.52385        -4.82709        -2.31810
   C      -10.81892        -5.11742        -2.04649
   C      -11.71251        -5.76733        -2.94295
   C      -11.64859        -5.76670        -4.29793
   C      -12.45951        -6.61925        -5.09707
   S      -12.99878        -6.14889        -6.68220
   C      -13.89270        -7.60783        -6.83563
   C      -13.78782        -8.42877        -5.75583
   C      -14.45007        -9.76310        -5.68168
   C      -12.94657        -7.87588        -4.74346
   C      -12.46856        -8.53248        -3.55466
   C      -13.09540        -9.42494        -2.76395
   C      -12.45496        -9.93909        -1.59024
   C      -13.07431       -10.70455        -0.67198
   C      -12.49596       -11.19267         0.55503
   C      -11.23101       -11.57022         0.78310
   C      -10.15381       -11.62222        -0.25120
   C      -10.81167       -12.03732         2.16144
   N       -9.75514       -11.24149         2.73776
   C       -9.98360       -10.12474         3.49746
   C       -9.05050        -9.26968         3.91013
   H      -11.02459        -5.02537         4.37900
   H       -6.06306        -5.69846         4.53073
   H      -10.87388        -6.32272         1.89761
   H       -7.70425        -2.50292         9.07587
   H       -9.57621        -0.90041         9.12702
   H      -11.61563         0.20495         7.70225
   H      -12.35117         0.47773         5.24515
   H      -12.68621        -0.13778         2.67669
   H      -12.39160        -1.23436         0.35678
   H      -10.79608        -2.80133        -0.92211
   H       -5.53911        -4.43638         0.01514
   H       -5.54440        -5.74951        -2.15775
   H       -6.63515        -5.06849        -3.37098
   H       -7.10704        -6.51620        -2.47811
   H       -9.11712        -5.10897        -3.27861
   H      -11.18232        -4.98319        -1.03647
   H      -12.51920        -6.31640        -2.47539
   H      -10.98992        -5.08164        -4.81441
   H      -14.45017        -7.78297        -7.73533
   H      -14.75611       -10.08863        -6.67211
   H      -15.33761        -9.71307        -5.05126
   H      -13.77031       -10.49797        -5.25676
   H      -11.47006        -8.22925        -3.25561
   H      -14.11427        -9.73112        -2.95058
   H      -11.43698        -9.61515        -1.42962
   H      -14.12403       -10.93904        -0.81570
   H      -13.20660       -11.29798         1.36971
   H      -10.57479       -11.73941        -1.24705
   H       -9.48196       -12.45588        -0.04988
   H       -9.56192       -10.70601        -0.24604
   H      -10.45751       -13.07434         2.09730
   H      -11.66315       -12.00767         2.84466
   H       -8.83783       -11.33004         2.33276
   H      -11.01380       -10.00226         3.79760
   H       -8.01889        -9.38252         3.62314
   H       -9.29176        -8.44382         4.55928
*
