# ORCA input file
# SCF done       -186.379659512066          0.009331675782
! CAM-B3LYP def2-SVP def2/J RIJCOSX Grid4 TightSCF
%maxcore 5000
%tddft
    Mode sTDDFT
    Ethresh 5.0
    maxcore 5000
end

%pal
  nprocs 6
  end
* xyz 0 1
   C       -8.51769        -4.28124        -0.43302
   C       -9.88251        -4.29141        -0.57526
   C      -10.77824        -4.58262         0.47642
   N      -11.55045        -4.83586         1.28581
   C      -10.58657        -4.07800        -1.77845
   N      -11.22944        -3.92429        -2.71845
   C       -7.80912        -4.55729         0.81423
   C       -6.42825        -4.67894         0.53118
   C       -5.50389        -5.00239         1.49535
   C       -5.96179        -5.17382         2.80656
   C       -7.33133        -4.97874         3.08876
   C       -8.27170        -4.68051         2.10890
   S       -7.67281        -5.19275         4.78129
   C       -5.99659        -5.57232         5.07478
   C       -5.21788        -5.52397         3.96860
  Br       -5.44369        -6.04115         6.79845
   C       -6.19130        -4.34683        -0.88690
   O       -5.12148        -4.36617        -1.46703
   C       -7.51862        -4.03356        -1.45706
   C       -7.76781        -3.62190        -2.74003
   C       -6.85455        -3.13712        -3.71087
   S       -7.21544        -3.42685        -5.39686
   C       -5.73833        -2.69765        -5.87644
   C       -5.00630        -2.22168        -4.83160
   C       -3.70018        -1.51246        -4.96328
   C       -5.65364        -2.43487        -3.58276
   C       -5.17653        -1.96072        -2.31660
   C       -6.01859        -1.47319        -1.36694
   C       -5.76469        -1.38080         0.01953
   C       -4.64268        -1.86359         0.63746
   C       -4.55138        -2.06467         2.01847
   C       -5.54772        -1.95133         2.99837
   C       -5.10301        -2.25575         4.33438
   N       -5.90764        -2.12621         5.37326
   C       -7.17132        -1.76242         5.13627
   C       -8.06358        -1.50845         6.26829
   O       -7.71357        -1.59259         7.44441
   C       -9.43082        -1.10162         5.90624
   C       -9.89624        -1.03693         4.65046
   C       -9.06773        -1.34212         3.48300
   O       -9.50143        -1.37365         2.34505
   C       -7.63859        -1.60093         3.79715
   N       -6.83021        -1.67251         2.76091
   C       -3.75312        -2.69236         4.37693
   S       -3.08041        -2.64944         2.75650
   C       -2.96762        -3.15219         5.41032
   C       -3.24649        -3.23888         6.77167
   C       -2.33334        -3.81188         7.68098
   C       -2.74745        -3.77179         8.98228
   C       -3.99733        -3.15013         9.13773
   S       -4.66321        -2.65847         7.59357
   C       -4.64315        -2.86508        10.33606
   C       -4.19369        -3.16518        11.64509
   C       -4.99520        -2.65279        12.61524
   C       -6.11660        -1.92362        12.12339
   S       -6.13925        -1.99474        10.36741
   C       -6.92882        -1.15276        12.90948
   C       -7.99196        -0.29783        12.49339
   C       -8.33255         0.83116        13.26294
   O       -7.62175         0.94342        14.41055
   C       -7.72333         2.03673        15.29595
   C       -9.30625         1.76481        12.78971
   O       -9.53175         2.86294        13.57685
   C      -10.40577         3.86103        13.11117
   C       -9.95756         1.56941        11.59238
   C       -9.69681         0.41369        10.84730
   C       -8.72192        -0.52722        11.30129
   N       -8.64619        -1.58777        10.50142
   S       -9.64367        -1.38686         9.26797
   N      -10.27277         0.02387         9.70451
   H       -4.45939        -5.11877         1.24848
   H       -9.30589        -4.54804         2.36831
   H       -4.16292        -5.73604         3.96867
   H       -8.79084        -3.68792        -3.09559
   H       -5.48867        -2.65653        -6.91970
   H       -3.40285        -1.44453        -6.00572
   H       -2.92766        -2.04671        -4.41140
   H       -3.77483        -0.50655        -4.55042
   H       -4.11352        -2.03437        -2.13899
   H       -7.03589        -1.25141        -1.66626
   H       -6.57578        -1.03563         0.64458
   H       -3.78824        -2.16695         0.04963
   H      -10.07181        -0.85453         6.74237
   H      -10.91616        -0.74684         4.44187
   H       -1.98124        -3.49713         5.12434
   H       -1.39880        -4.23278         7.35402
   H       -2.18181        -4.16125         9.80828
   H       -3.29939        -3.73234        11.83274
   H       -4.81239        -2.74663        13.67208
   H       -6.67693        -1.10773        13.96129
   H       -7.02421         1.80397        16.09987
   H       -8.72837         2.13801        15.70491
   H       -7.42789         2.96972        14.81668
   H      -10.06430         4.28494        12.16169
   H      -10.39224         4.63597        13.87683
   H      -11.42678         3.48467        12.99681
   H      -10.67532         2.27408        11.21333
*
