# ORCA input file
# SCF done       -192.288260959069          0.000684270292
! CAM-B3LYP def2-SVP def2/J RIJCOSX Grid4 TightSCF
%maxcore 5000
%tddft
    Mode sTDDFT
    Ethresh 5.0
    maxcore 5000
end

%pal
  nprocs 6
  end
* xyz 0 1
   C        8.95405         0.41217        -5.00628
   C        9.24218        -0.09921        -3.80203
   C       10.43499         0.09437        -3.02722
   C       10.44368        -0.55172        -1.84118
   C        9.26581        -1.30897        -1.57877
   S        8.13924        -1.16235        -2.91246
   C        9.00039        -2.07000        -0.46691
   C        9.83186        -2.25790         0.66579
   C        9.30520        -3.08971         1.59912
   C        8.03036        -3.62361         1.26362
   S        7.51234        -2.98762        -0.28655
   C        7.34050        -4.52254         2.03267
   C        6.13283        -5.18098         1.74865
   S        5.30729        -5.01433         0.22191
   C        4.22279        -6.28812         0.63131
   C        4.46417        -6.83231         1.85253
   C        3.67014        -7.94739         2.44765
   C        5.53705        -6.18442         2.53081
   C        5.98172        -6.54888         3.84125
   C        6.43509        -5.67251         4.77333
   C        7.11032        -6.05070         5.95713
   C        7.56630        -5.14290         6.86424
   C        8.52708        -5.42159         7.85789
   S        9.05645        -4.16951         8.94264
   C       10.41152        -5.08544         9.51912
   C       10.41430        -6.35604         8.93584
   C        9.34649        -6.54924         8.00912
   N        9.24342        -7.69327         7.30116
   C       10.15080        -8.61039         7.52399
   O       10.13590        -9.75115         6.83879
   C        9.10022        -9.92227         5.87811
   C        9.35347        -9.12410         4.60464
   C       11.19547        -8.43719         8.50289
   C       12.14604        -9.55884         8.80445
   N       11.46393       -10.52824         9.65574
   N       11.31329        -7.33340         9.17883
   C       11.43889        -4.48076        10.27280
   N       12.66785        -4.90018        10.29891
   C       13.47256        -4.02540        10.90926
   C       12.85938        -2.89769        11.41328
   S       11.17545        -2.91900        11.11626
   C       13.91317        -2.07772        12.04810
   C       15.06805        -2.39393        11.05643
   C       14.98914        -3.96351        11.00760
   C       15.46386        -4.67075        12.29187
   C       16.96102        -4.55627        12.55324
   C       15.63397        -4.64097         9.79241
   C       14.98465        -4.33500         8.44789
   N       16.17745        -1.47826        11.38719
   C       15.83858        -0.77480        12.60232
   S       14.05553        -0.30737        12.40888
   C       16.59133        -0.61621        10.41073
   C       16.77144        -0.75866         9.07140
   C       17.05050        -1.85194         8.17437
   C       17.93088        -2.86384         8.44888
   C       18.32585        -3.82685         7.50217
   N       18.64916        -4.62900         6.74730
   C       18.56678        -2.93415         9.70587
   N       19.10459        -2.96466        10.71872
   C       16.53602        -1.47935         6.86077
   C       16.22955        -0.09631         6.88437
   C       16.53100         0.44816         8.22833
   O       16.51461         1.60254         8.58268
   C       15.67898         0.55016         5.80474
   C       15.38936        -0.21344         4.66803
   C       15.70902        -1.59181         4.65531
   C       16.30093        -2.23952         5.73372
   S       15.21785        -2.34936         3.17051
   C       14.58339        -0.82777         2.60310
   C       14.74580         0.19984         3.46768
  Br       13.73164        -0.74907         0.93827
   H        9.65444         1.05341        -5.51169
   H        8.02476         0.20181        -5.50291
   H       11.23534         0.71000        -3.39744
   H       11.25934        -0.52065        -1.13988
   H       10.78989        -1.77745         0.74825
   H        9.78929        -3.35605         2.52265
   H        7.82153        -4.81212         2.95829
   H        3.45698        -6.56225        -0.06753
   H        2.86392        -8.23799         1.77956
   H        3.24524        -7.64274         3.40298
   H        4.30684        -8.81443         2.62272
   H        5.94288        -7.60254         4.08993
   H        6.31873        -4.61092         4.59364
   H        7.36523        -7.09095         6.09111
   H        7.25145        -4.10955         6.78493
   H        8.14440        -9.63037         6.32587
   H        9.09685       -10.99440         5.66876
   H        9.34973        -8.05919         4.82225
   H        8.57420        -9.33760         3.87839
   H       10.31660        -9.39417         4.17847
   H       13.04720        -9.12286         9.26267
   H       12.41515       -10.06496         7.87378
   H       11.22016       -10.09409        10.54034
   H       12.07788       -11.31125         9.85096
   H       14.11468        -2.52397        13.03022
   H       14.72898        -2.08177        10.05729
   H       14.92231        -4.28372        13.15703
   H       15.18782        -5.72348        12.20164
   H       17.29141        -3.52184        12.52027
   H       17.53394        -5.11383        11.81854
   H       17.19260        -4.96172        13.53534
   H       16.69146        -4.38443         9.77491
   H       15.56192        -5.71848         9.94998
   H       14.91478        -3.26607         8.25487
   H       13.98333        -4.75569         8.41472
   H       15.57225        -4.78889         7.65271
   H       16.44482         0.11423        12.74906
   H       15.92679        -1.43230        13.46884
   H       16.66658         0.41983        10.73562
   H       15.45378         1.60432         5.84204
   H       16.52416        -3.29318         5.69091
   H       14.41368         1.20452         3.27879
*
