# ORCA input file
# SCF done       -172.118030622913          0.000234717548
! CAM-B3LYP def2-SVP def2/J RIJCOSX Grid4 TightSCF
%maxcore 5000
%tddft
    Mode sTDDFT
    Ethresh 5.0
    maxcore 5000
end

%pal
  nprocs 6
  end
* xyz 0 1
   C       -2.25911        -5.52931        -6.96744
   C       -1.12036        -5.30123        -6.29421
   C       -0.78507        -4.16618        -5.48904
   C        0.44960        -4.22336        -4.93201
   C        1.17962        -5.39567        -5.25031
   S        0.23875        -6.43680        -6.29109
   C        2.45852        -5.72596        -4.83197
   C        3.31643        -4.98272        -4.00166
   C        4.52697        -5.58579        -3.78047
   C        4.67911        -6.82403        -4.42229
   S        3.23322        -7.21752        -5.32200
   C        5.80429        -7.64557        -4.38683
   C        5.92190        -8.84604        -5.04341
   C        7.06731        -9.64458        -5.03063
   C        7.25760       -10.85279        -5.70911
   C        8.51127       -11.39531        -5.54103
   C        9.34638       -10.62986        -4.72111
   S        8.51550        -9.21147        -4.15056
   C       10.68390       -10.87206        -4.38154
   C       11.51461       -11.89702        -4.85220
   C       12.79437       -11.81443        -4.36727
   C       13.01793       -10.71395        -3.51816
   S       11.55345        -9.80092        -3.31988
   C       14.23377       -10.47471        -2.87771
   C       14.65210        -9.41193        -2.10422
   C       14.16517        -8.12454        -1.84295
   C       14.91817        -7.39280        -0.89857
   C       16.07964        -8.03520        -0.36959
   O       16.89543        -7.65133         0.43317
   S       16.15696        -9.64965        -1.17421
   C       14.32648        -6.13354        -0.74393
   O       13.24716        -6.06066        -1.57891
   C       13.14107        -7.22850        -2.32512
   O       12.33208        -7.31095        -3.21771
   C       14.69545        -5.05902         0.05632
   S       16.15146        -5.12027         1.00468
   C       15.93288        -3.49492         1.59436
   C       14.72995        -2.93624         1.09241
   C       14.03360        -3.81328         0.21831
   C       12.82607        -3.41581        -0.36947
   C       12.33454        -2.16843        -0.08208
   F       11.17466        -1.76503        -0.62782
   C       13.02183        -1.29700         0.78059
   F       12.50580        -0.08135         1.03779
   C       14.20563        -1.66532         1.36444
   C       16.87413        -2.87292         2.41369
   C       18.06105        -3.45677         2.79291
   C       19.06000        -2.84220         3.55317
   C       20.27319        -3.42502         3.85643
   C       21.17258        -2.63513         4.57567
   S       20.48826        -1.06220         4.95127
   C       18.92642        -1.44833         4.09192
   C       22.46714        -2.96531         4.95385
   C       23.15847        -4.16939         4.72629
   C       24.44221        -4.16896         5.19451
   C       24.82515        -2.96366         5.81371
   S       23.48964        -1.82395         5.79630
   C       26.04997        -2.64542         6.36085
   S       27.38973        -3.77801         6.36617
   C       28.49767        -2.58724         7.19046
   C       27.69966        -1.34135         7.41660
   C       26.42098        -1.42279         6.96407
   C       28.26692        -0.18763         8.05165
   C       29.52204        -0.08725         8.49522
   H       -3.06218        -4.81419        -6.94425
   H       -2.40482        -6.42323        -7.54537
   H       -1.48082        -3.35632        -5.36156
   H        0.86394        -3.45812        -4.30015
   H        3.03349        -4.03141        -3.58893
   H        5.31043        -5.16597        -3.17469
   H        6.64380        -7.29044        -3.80253
   H        5.08362        -9.20477        -5.62803
   H        6.48323       -11.29527        -6.31069
   H        8.83416       -12.31600        -5.99211
   H       11.17423       -12.65504        -5.53412
   H       13.58178       -12.50410        -4.61537
   H       14.95588       -11.27744        -2.97442
   H       12.28869        -4.07035        -1.03466
   H       14.70728        -0.97564         2.02301
   H       16.65392        -1.86475         2.73532
   H       18.25762        -4.46549         2.45491
   H       20.52444        -4.42261         3.54131
   H       18.78374        -0.71016         3.30108
   H       18.11004        -1.36005         4.81069
   H       22.70159        -5.00280         4.22447
   H       25.12881        -4.99306         5.11097
   H       29.35856        -2.41462         6.54179
   H       28.84604        -3.03156         8.12456
   H       25.70521        -0.62111         7.04100
   H       27.59146         0.65037         8.16158
   H       30.23109        -0.89256         8.40810
   H       29.87790         0.81379         8.96232
*
