# ORCA input file
# SCF done       -166.086101899544          0.000615225256
! CAM-B3LYP def2-SVP def2/J RIJCOSX Grid4 TightSCF
%maxcore 5000
%tddft
    Mode sTDDFT
    Ethresh 5.0
    maxcore 5000
end

%pal
  nprocs 6
  end
* xyz 0 1
   C       -2.33631        -0.69060         0.77277
   C       -2.67999        -1.96384         0.36762
   C       -1.80840        -3.06509         0.30898
   N       -1.19842        -4.03691         0.21952
   C       -3.94700        -2.39487        -0.06209
   N       -4.91765        -2.88623        -0.44013
   C       -0.99997        -0.28045         1.19374
   C       -1.03338         1.09662         1.52604
   C        0.07798         1.77680         1.95597
   C        1.27916         1.06557         2.06442
   C        1.30070        -0.30787         1.73130
   C        0.17460        -0.99789         1.29452
   S        2.88779        -0.98104         1.94116
   C        3.49568         0.55255         2.46244
   C        2.56011         1.52661         2.48074
   C       -2.40755         1.60840         1.32830
   O       -2.78952         2.74713         1.52070
   C       -3.19462         0.45484         0.85659
   C       -4.54403         0.48359         0.55122
   C       -5.38239         1.58473         0.63156
   C       -6.72621         1.50031         0.29420
   C       -7.69765         2.52058         0.32039
   C       -8.94513         2.11751        -0.07986
   C       -9.00831         0.76092        -0.43842
   S       -7.44415         0.00443        -0.25384
   C      -10.07828        -0.00171        -0.89303
   C      -11.41841         0.35438        -1.13282
   C      -12.18519        -0.68229        -1.58975
   C      -11.48764        -1.90255        -1.73212
   S       -9.81762        -1.68704        -1.25954
   C      -11.99562        -3.10648        -2.17688
   C      -11.28057        -4.29543        -2.31372
   S       -9.59048        -4.45145        -1.92126
   C       -9.54774        -6.13254        -2.37047
   C      -10.81463        -6.54610        -2.81066
   C      -11.76908        -5.53200        -2.77702
   S      -13.45849        -5.65221        -3.23834
   C      -13.80344        -7.28762        -3.81164
   O      -14.93015        -7.50945        -4.16241
   C      -12.76816        -8.38606        -3.87393
   O      -13.07905        -9.46753        -4.29536
   S      -11.09227        -8.19696        -3.34953
   C       -8.29997        -6.76336        -2.22364
   C       -7.95787        -8.05936        -2.47811
   C       -6.65832        -8.57411        -2.29839
   S       -6.35356       -10.26920        -2.59085
   C       -4.67611       -10.09869        -2.17895
   C       -4.37363        -8.78783        -1.83083
   C       -5.48104        -7.92281        -1.91012
   O       -5.47745        -6.59878        -1.65629
   C       -4.21877        -5.95865        -1.54332
   C       -3.28712        -6.67433        -0.58487
   S       -2.77901        -8.27315        -1.30396
   C       -3.82109       -11.22361        -2.23202
   S       -2.12212       -11.18233        -1.85885
   C       -1.96880       -12.86057        -2.18020
   C       -3.14989       -13.43500        -2.55420
   C       -4.21391       -12.50436        -2.59584
   O       -5.50382       -12.75117        -2.92851
   C       -5.75183       -13.98198        -3.57760
   C       -5.17129       -15.16346        -2.81692
   S       -3.34798       -15.14256        -2.92572
   H        0.02551         2.82620         2.20167
   H        0.23888        -2.04584         1.05103
   H        4.53248         0.62905         2.72668
   H        2.75447         2.54181         2.77646
   H       -4.99747        -0.44228         0.21556
   H       -4.98745         2.53409         0.96190
   H       -7.45329         3.52075         0.63135
   H       -9.80510         2.76196        -0.12299
   H      -11.78425         1.35181        -0.96769
   H      -13.23092        -0.60298        -1.82923
   H      -13.04273        -3.13493        -2.44868
   H       -7.52574        -6.10633        -1.85532
   H       -8.69239        -8.76707        -2.83361
   H       -4.45481        -4.95366        -1.18082
   H       -3.75015        -5.88517        -2.53317
   H       -2.37574        -6.10142        -0.42408
   H       -3.78042        -6.86429         0.36848
   H       -1.02085       -13.34649        -2.07417
   H       -6.84081       -14.05527        -3.63023
   H       -5.34180       -13.95844        -4.59631
   H       -5.49257       -16.10526        -3.25532
   H       -5.45728       -15.12419        -1.76542
*
