# ORCA input file
# SCF done       -195.120450290871          0.000513085418
! CAM-B3LYP def2-SVP def2/J RIJCOSX Grid4 TightSCF
%maxcore 5000
%tddft
    Mode sTDDFT
    Ethresh 5.0
    maxcore 5000
end

%pal
  nprocs 6
  end
* xyz 0 1
   C       -8.04192         0.69625        -5.60769
   C       -9.30544         0.61778        -6.12405
   C       -9.68706        -0.27446        -7.14895
   N      -10.05449        -0.97459        -7.98095
   C      -10.40741         1.38603        -5.68947
   N      -11.35496         1.95887        -5.38712
   C       -6.90829        -0.13367        -5.97943
   C       -5.81981         0.15315        -5.11461
   C       -4.60485        -0.48247        -5.21900
   C       -4.45270        -1.44228        -6.22296
   C       -5.54280        -1.71896        -7.08467
   C       -6.77144        -1.08033        -6.97941
   S       -5.12685        -2.93178        -8.25391
   C       -3.53327        -3.05699        -7.59317
   C       -3.31381        -2.23242        -6.54582
   C       -6.21156         1.19923        -4.16026
   O       -5.52746         1.67342        -3.27731
   C       -7.60168         1.58503        -4.53462
   C       -8.25709         2.63785        -4.01802
   C       -7.72042         3.43828        -2.88572
   C       -8.33320         4.79181        -2.74210
   N       -8.88596         5.47531        -3.71661
   S       -9.43242         6.88970        -3.12829
   N       -8.96341         6.64770        -1.58846
   C       -8.37944         5.47686        -1.49752
   C       -7.77201         4.90695        -0.25343
   C       -7.94743         3.42879        -0.33711
   C       -7.92903         2.72932        -1.57579
   N       -8.11359         1.43921        -1.43641
   S       -8.29174         1.10165         0.14558
   N       -8.14250         2.62979         0.68377
   C       -6.30688         5.32291        -0.25888
   C       -5.29007         4.41398        -0.53351
   C       -3.98864         4.86261        -0.57806
   C       -3.68724         6.21528        -0.36174
   C       -4.70141         7.12148        -0.09104
   C       -6.00611         6.66440        -0.04312
   C       -2.25236         6.38712        -0.47149
   C       -1.67198         5.13444        -0.73980
   C       -2.73670         4.06857        -0.85763
   C       -2.53835         2.94308         0.17282
   C       -2.50883         3.45586         1.60751
   C       -2.77098         3.46626        -2.27605
   C       -2.95536         4.51868        -3.36299
   C       -0.31273         5.00159        -0.86520
   C        0.51122         6.13393        -0.74095
   C       -0.08957         7.38234        -0.51170
   C       -1.45455         7.51708        -0.36473
   C        1.94275         6.05705        -0.84116
   C        2.68650         4.92361        -0.76071
   C        4.09060         4.89421        -0.85391
   C        4.84596         3.76341        -0.67811
   C        6.25481         3.64551        -0.76239
   C        6.73136         2.39467        -0.50952
   C        5.72902         1.44919        -0.20187
   S        4.14865         2.20058        -0.26898
   C        5.88625         0.12053         0.14210
   C        7.08400        -0.62090         0.23977
   C        6.90325        -1.90973         0.63863
   C        5.55414        -2.27225         0.88749
   S        4.51955        -0.88669         0.56386
   C        5.14021        -3.50023         1.33355
   C        3.83840        -3.95025         1.64164
   C        3.54474        -5.21400         2.15883
   C        2.14573        -5.31172         2.36816
   C        1.35773        -6.32098         2.87081
   C       -0.02670        -6.08869         2.95965
   C       -1.06460        -6.88220         3.41987
   C       -2.29699        -6.16169         3.29145
   C       -2.01388        -4.92295         2.75066
   C       -0.60349        -4.82730         2.52701
   C        0.17528        -3.82046         2.02767
   C        1.56753        -4.04754         1.94545
   C        2.59535        -3.23655         1.51125
   C       -3.61267        -6.62719         3.65748
   C       -3.89504        -7.81084         4.19503
   H       -3.79636        -0.24304        -4.54562
   H       -7.56885        -1.32195        -7.66216
   H       -2.84782        -3.75189        -8.03810
   H       -2.38361        -2.17358        -6.01035
   H       -9.22381         2.94065        -4.39341
   H       -6.62977         3.54940        -3.00663
   H       -8.26177         5.30641         0.63817
   H       -5.50710         3.36981        -0.70219
   H       -4.48249         8.16490         0.07850
   H       -6.81382         7.35410         0.15434
   H       -1.60056         2.42856        -0.04761
   H       -3.34975         2.22103         0.05993
   H       -1.69948         4.17024         1.74257
   H       -2.35753         2.62951         2.29833
   H       -3.44586         3.94792         1.85897
   H       -3.58875         2.74606        -2.33324
   H       -1.83524         2.93012        -2.44915
   H       -3.88126         5.07022        -3.21213
   H       -2.99664         4.04163        -4.33981
   H       -2.13106         5.22900        -3.35970
   H        0.12411         4.03766        -1.07627
   H        0.54386         8.25448        -0.43014
   H       -1.89232         8.48544        -0.17231
   H        2.46177         7.00168        -0.95187
   H        2.20304         3.97085        -0.58914
   H        4.61427         5.81655        -1.06914
   H        6.87092         4.49336        -1.00588
   H        7.77354         2.12967        -0.52688
   H        8.04124        -0.18493         0.01629
   H        7.70101        -2.61973         0.77147
   H        5.93006        -4.22605         1.49069
   H        4.26123        -5.98584         2.37264
   H        1.77895        -7.26307         3.19264
   H       -0.96640        -7.87802         3.81158
   H       -2.72601        -4.14844         2.53092
   H       -0.24319        -2.87663         1.70716
   H        2.48817        -2.23666         1.13448
   H       -4.41314        -5.92277         3.46615
   H       -3.13400        -8.54162         4.40873
   H       -4.90388        -8.08884         4.44662
*
