# ORCA input file
# SCF done       -261.102942962074          0.000397193231
! CAM-B3LYP def2-SVP def2/J RIJCOSX Grid4 TightSCF
%maxcore 5000
%tddft
    Mode sTDDFT
    Ethresh 5.0
    maxcore 5000
end

%pal
  nprocs 6
  end
* xyz 0 1
   C       -1.49557         0.07473         0.24245
   C       -1.30020        -0.14541        -1.09586
   C       -0.73808        -1.32460        -1.62811
   N       -0.29254        -2.26196        -2.11870
   C       -1.59445         0.77530        -2.12417
   N       -1.78610         1.47091        -3.01771
   C       -1.10282        -0.82767         1.31571
   C       -1.32579        -0.18025         2.55445
   C       -1.04935        -0.77462         3.76175
   C       -0.52611        -2.07148         3.74570
   C       -0.31047        -2.71304         2.50239
   C       -0.59074        -2.11211         1.28202
   S        0.33475        -4.31302         2.71235
   C        0.30919        -4.09995         4.44278
   C       -0.15877        -2.89466         4.84526
  Br        0.90124        -5.48968         5.55446
   C       -1.88410         1.16831         2.32086
   O       -2.19710         1.96249         3.17979
   C       -2.04351         1.27971         0.84685
   C       -2.77200         2.21594         0.17892
   C       -3.28577         3.46931         0.65148
   C       -4.47049         3.95538         0.06419
   C       -4.99964         5.14401         0.49238
   C       -4.34166         5.90307         1.47971
   C       -3.14487         5.45923         2.02618
   C       -2.62910         4.24755         1.61639
   C       -5.11497         7.09801         1.72939
   C       -6.25448         7.07638         0.90618
   C       -6.26647         5.83506         0.04515
   C       -6.21255         6.19169        -1.45251
   C       -5.00661         7.05039        -1.81414
   C       -7.50623         4.96569         0.32599
   C       -7.63048         4.56886         1.79223
   C       -7.17487         8.09388         0.96404
   C       -6.97202         9.17189         1.83974
   C       -5.82778         9.17847         2.64935
   C       -4.90367         8.15553         2.60354
   C       -7.96913        10.22006         1.89276
   C       -7.80705        11.43120         2.45192
   C       -8.79933        12.47756         2.55382
   C      -10.15165        12.29173         2.24157
   C      -11.09031        13.29181         2.40736
   C      -10.69328        14.52922         2.90387
   C       -9.31818        14.73086         3.16473
   C       -8.38281        13.73729         3.01317
   N       -9.11513        16.03516         3.56873
   C       -7.84898        16.61123         3.92649
   C      -10.28938        16.74079         3.55732
   O      -10.36138        17.90638         3.88724
   C      -11.37422        15.77717         3.16563
   C      -12.71002        16.06720         3.21270
   C      -13.80095        15.04213         3.33184
   O      -13.74550        13.83071         3.27946
   N      -14.95795        15.72419         3.60575
   C      -16.22417        15.08060         3.81949
   C      -14.74459        17.08842         3.58898
   C      -13.37860        17.34467         3.33477
   C      -12.97654        18.66520         3.17636
   C      -13.89943        19.67860         3.35912
   C      -15.23132        19.41899         3.68788
   C      -15.66624        18.09264         3.77664
   C      -16.15857        20.52218         3.95882
   C      -15.70783        21.64204         4.66565
   C      -16.58503        22.65989         4.95344
   C      -17.92649        22.58632         4.54192
   C      -18.37831        21.48690         3.82707
   C      -17.49132        20.46502         3.54453
   C      -18.61469        23.77111         5.00932
   C      -17.69161        24.58110         5.69694
   C      -16.32459        23.94106         5.70825
   C      -15.84917        23.66399         7.14698
   C      -16.85010        22.84950         7.95712
   C      -15.28539        24.81495         4.98069
   C      -15.68024        25.13189         3.54315
   C      -18.08469        25.75997         6.27517
   C      -19.43254        26.14796         6.20212
   C      -20.34241        25.32948         5.51571
   C      -19.94504        24.15532         4.91040
   C      -19.91537        27.31744         6.88467
   C      -19.16236        28.34372         7.34358
   C      -19.67302        29.46112         8.05627
   C      -20.76301        29.54041         8.86911
   C      -21.61018        28.54109         9.48811
   C      -21.26026        27.26602         9.85120
   C      -22.11347        26.38686        10.54864
   N      -22.77302        25.62551        11.09985
   C      -19.98810        26.69317         9.65140
   N      -18.96810        26.17356         9.56521
   C      -22.83497        29.21574         9.91098
   C      -22.65455        30.61524         9.77814
   C      -21.32283        30.87857         9.19662
   O      -20.80557        31.95227         8.98662
   C      -23.62031        31.52184        10.14184
   C      -24.82522        31.02389        10.64880
   C      -25.00288        29.62414        10.75926
   C      -24.02332        28.70692        10.39935
   S      -26.57016        29.22682        11.39561
   C      -26.95790        30.92326        11.50947
   C      -25.96783        31.74623        11.09041
  Br      -28.63431        31.44609        12.16835
   H       -1.23035        -0.25427         4.68924
   H       -0.41548        -2.64431         0.36209
   H       -0.24305        -2.59681         5.87443
   H       -3.05079         1.98091        -0.84263
   H       -4.96343         3.36759        -0.69710
   H       -2.62313         6.05107         2.76263
   H       -1.69014         3.90740         2.01936
   H       -7.12867         6.72384        -1.71710
   H       -6.18464         5.26643        -2.03160
   H       -5.02176         7.98766        -1.26203
   H       -5.01586         7.27719        -2.87757
   H       -4.07980         6.53021        -1.58249
   H       -7.44904         4.06594        -0.29026
   H       -8.39709         5.52015         0.02380
   H       -6.76260         3.99624         2.11209
   H       -8.51846         3.95865         1.94016
   H       -7.71011         5.45090         2.42387
   H       -8.05558         8.07910         0.33749
   H       -5.67503         9.99036         3.34330
   H       -4.03430         8.17464         3.24362
   H       -8.90767         9.97719         1.41265
   H       -6.84315        11.68964         2.87124
   H      -10.48347        11.33226         1.87830
   H      -12.12270        13.10126         2.17384
   H       -7.34169        13.91515         3.23743
   H       -7.41483        16.08326         4.77794
   H       -8.02987        17.65054         4.19896
   H       -7.15455        16.57115         3.08426
   H      -16.05676        14.00551         3.76234
   H      -16.94331        15.37779         3.05277
   H      -16.62132        15.33465         4.80427
   H      -11.95772        18.90747         2.93290
   H      -13.58198        20.70215         3.23013
   H      -16.69344        17.86726         4.01732
   H      -14.68385        21.68219         5.00560
   H      -19.40492        21.42617         3.49755
   H      -17.82904        19.61214         2.97425
   H      -15.67478        24.61754         7.64864
   H      -14.89756        23.13022         7.10033
   H      -17.78220        23.39627         8.07847
   H      -16.44643        22.64268         8.94520
   H      -17.06377        21.90196         7.46664
   H      -14.32622        24.29325         4.98658
   H      -15.16215        25.74654         5.53677
   H      -15.78764        24.21788         2.96312
   H      -14.91842        25.74974         3.07330
   H      -16.62580        25.66920         3.51323
   H      -17.38124        26.36115         6.82857
   H      -21.37876        25.63289         5.46405
   H      -20.66053        23.53909         4.38681
   H      -20.99117        27.37401         7.00967
   H      -18.11116        28.38722         7.09493
   H      -19.15713        30.40551         7.90729
   H      -23.45199        32.58236        10.03948
   H      -24.20621        27.64958        10.49618
   H      -26.03777        32.81863        11.09170
*
