# ORCA input file
# SCF done       -172.349227065462          0.000185697581
! CAM-B3LYP def2-SVP def2/J RIJCOSX Grid4 TightSCF
%maxcore 5000
%tddft
    Mode sTDDFT
    Ethresh 5.0
    maxcore 5000
end

%pal
  nprocs 6
  end
* xyz 0 1
   C       14.06350        -5.33592        -3.57595
   C       12.89402        -5.04568        -4.16084
   C       12.67143        -4.24051        -5.32873
   C       11.37538        -4.12851        -5.69061
   C       10.46801        -4.83000        -4.84533
   S       11.33754        -5.64206        -3.56084
   C        9.10257        -4.90888        -4.96929
   C        8.27260        -4.31598        -5.95327
   C        6.95500        -4.60870        -5.81084
   C        6.65156        -5.44164        -4.69821
   S        8.12970        -5.84615        -3.84691
   C        5.40360        -5.91641        -4.39365
   C        5.01102        -6.70470        -3.29668
   S        3.51286        -7.62168        -3.42126
   C        3.66723        -8.33446        -1.83288
   C        4.81754        -7.83737        -1.25176
   C        5.56344        -6.94642        -2.04996
   S        6.91424        -6.34207        -1.12537
   C        6.42094        -7.35955         0.24716
   S        7.20008        -7.44491         1.66528
   O        5.31958        -8.06326        -0.01299
   C        2.73761        -9.29804        -1.35865
   C        2.86035        -9.92308        -0.16692
   C        2.03212       -10.98724         0.33730
   C        0.88643       -11.44899        -0.33246
   C        0.20993       -12.54229         0.15053
   C        0.62475       -13.16378         1.34367
   C        1.72911       -12.69212         2.03935
   C        2.42531       -11.61857         1.52729
   C       -0.27042       -14.25991         1.63248
   C       -1.25028       -14.31436         0.62719
   C       -1.00029       -13.24891        -0.42061
   C       -0.67247       -13.98955        -1.73902
   C       -0.19208       -13.12351        -2.89606
   C       -2.20020       -12.30440        -0.58465
   C       -2.61747       -11.66352         0.73402
   C       -2.21807       -15.28793         0.65226
   C       -2.20707       -16.25502         1.67062
   C       -1.23649       -16.17060         2.67901
   C       -0.27777       -15.18000         2.67220
   C       -3.17099       -17.32594         1.61634
   C       -3.04484       -18.51615         2.24126
   C       -3.96290       -19.58984         2.11879
   S       -3.59257       -21.14536         2.83804
   C       -5.06043       -21.90269         2.24938
   C       -5.77976       -20.95051         1.54710
   C       -5.17507       -19.68250         1.46820
   S       -6.19295       -18.61401         0.53871
   C       -7.36426       -19.94000         0.31852
   S       -8.75225       -19.81488        -0.50833
   O       -6.97167       -21.06503         0.91256
   C       -5.37630       -23.25717         2.46662
   C       -4.54367       -24.13076         3.10396
   C       -4.81949       -25.48852         3.30637
   C       -3.94520       -26.36711         3.89785
   C       -4.14633       -27.75239         4.12176
   C       -3.09606       -28.38483         4.70951
   C       -1.99641       -27.53618         4.98807
   S       -2.35556       -25.89737         4.47844
   C       -0.79248       -27.87228         5.56154
   C       -0.37535       -29.15876         6.00526
   C        0.87168       -29.19186         6.52433
   C        1.54413       -27.92409         6.53321
   S        0.47561       -26.69575         5.83562
   C        2.77714       -27.65194         6.98140
   H       14.98699        -4.95403        -3.97423
   H       14.11847        -5.95316        -2.69810
   H       13.49720        -3.78236        -5.84364
   H       11.02756        -3.56583        -6.53872
   H        8.67357        -3.69511        -6.73410
   H        6.17694        -4.25276        -6.46293
   H        4.62119        -5.70580        -5.11138
   H        1.93119        -9.52953        -2.03906
   H        3.69130        -9.64712         0.46787
   H        0.54364       -10.93728        -1.21722
   H        2.04111       -13.16081         2.96056
   H        3.29921       -11.25106         2.04557
   H       -1.57310       -14.52534        -2.04720
   H        0.09555       -14.73649        -1.52068
   H       -0.90472       -12.33582        -3.12618
   H       -0.07830       -13.74291        -3.78338
   H        0.77305       -12.67726        -2.67279
   H       -3.03934       -12.86964        -0.99576
   H       -1.94328       -11.51825        -1.29595
   H       -2.90431       -12.42353         1.45747
   H       -3.46506       -11.00025         0.57704
   H       -1.79866       -11.08303         1.15377
   H       -2.97505       -15.34188        -0.11713
   H       -1.24814       -16.88738         3.48547
   H        0.46132       -15.12830         3.45761
   H       -4.02173       -17.16677         0.96542
   H       -2.17997       -18.72697         2.85338
   H       -6.32737       -23.59157         2.07463
   H       -3.59319       -23.75803         3.46843
   H       -5.77004       -25.87944         2.96821
   H       -5.06470       -28.23480         3.83625
   H       -3.07846       -29.43293         4.94897
   H       -1.01965       -30.01583         5.92038
   H        1.35633       -30.07200         6.90810
   H        3.39393       -28.42866         7.39780
   H        3.18746       -26.65970         6.94049
*
