# ORCA input file
# SCF done       -157.735533862463          0.000953549570
! CAM-B3LYP def2-SVP def2/J RIJCOSX Grid4 TightSCF
%maxcore 5000
%tddft
    Mode sTDDFT
    Ethresh 5.0
    maxcore 5000
end

%pal
  nprocs 6
  end
* xyz 0 1
   C        4.68251        -0.24644        -2.12262
   O        6.01987        -0.29639        -2.02876
   C        6.41871         0.82893        -1.41326
   C        5.35624         1.61234        -1.09409
   C        4.21325         0.90886        -1.56616
   S        2.52371         1.35396        -1.38027
   C        2.53899         3.07200        -1.81809
   C        1.54303         3.87414        -1.26166
   C        1.50413         5.20615        -1.59797
   C        2.44968         5.74606        -2.48669
   C        3.42760         4.93765        -3.04812
   C        3.46232         3.59635        -2.71621
   C        2.19108         7.16125        -2.62368
   C        1.08435         7.49788        -1.82015
   C        0.51289         6.26281        -1.16122
   C        0.43628         6.39730         0.36616
   C        1.80073         6.65821         0.99390
   C       -0.85460         5.87008        -1.77006
   C       -1.96877         6.89672        -1.61711
   C        0.69176         8.80631        -1.70296
   C        1.36095         9.81454        -2.42603
   C        2.43896         9.45022        -3.25080
   C        2.86119         8.14223        -3.34421
   C        0.90444        11.16297        -2.26994
   C        1.36517        12.26576        -2.92446
   C        0.90922        13.58788        -2.76457
   C       -0.04473        14.10493        -1.91582
   C       -0.41301        15.47171        -1.86850
   C       -1.37695        15.77187        -0.95104
   C       -1.82495        14.65774        -0.21534
   S       -0.98733        13.21719        -0.73003
   C       -2.79025        14.62748         0.78252
   C       -3.53170        15.70787         1.29463
   C       -4.43570        15.35547         2.25735
   C       -4.45716        13.98051         2.55992
   S       -3.24891        13.15181         1.59173
   C       -5.17036        13.23764         3.48458
   C       -6.31122        13.54976         4.23546
   C       -7.27194        14.56636         3.96115
   C       -8.41718        14.80372         4.82573
   N       -9.23174        15.83396         4.52143
   C       -9.06082        16.52509         3.41443
   C       -8.01955        16.18290         2.50660
   N       -7.14689        15.24839         2.82968
   C       -7.86721        16.85505         1.27332
   N       -7.74633        17.42017         0.28277
   C       -9.91885        17.61734         3.13953
   N      -10.59267        18.50570         2.87627
   C       -8.71171        13.98653         5.93437
   C       -7.81078        12.90744         6.14871
   C       -6.64520        12.70253         5.32924
   N       -5.92576        11.66079         5.73113
   S       -6.63969        10.99822         7.01626
   N       -7.88729        12.00429         7.12312
   C       -9.83972        14.10658         6.81751
   O      -10.21737        12.96364         7.44986
   C      -11.21103        13.25364         8.29190
   C      -11.51313        14.57735         8.25138
   C      -10.63999        15.14826         7.29260
   S      -10.62011        16.85005         6.95057
   H        4.17438        -1.07007        -2.58125
   H        7.47102         0.95794        -1.25612
   H        5.36386         2.56170        -0.60008
   H        0.83229         3.43789        -0.57641
   H        4.14966         5.34149        -3.74165
   H        4.20858         2.95260        -3.15679
   H        0.01468         5.47898         0.77983
   H       -0.23395         7.21940         0.61956
   H        2.48574         5.84088         0.77951
   H        1.70493         6.75316         2.07301
   H        2.23225         7.57781         0.60417
   H       -1.16552         4.93200        -1.30492
   H       -0.70267         5.67446        -2.83498
   H       -2.15046         7.13457        -0.57254
   H       -2.88826         6.49164        -2.03426
   H       -1.73066         7.81151        -2.15290
   H       -0.12203         9.08907        -1.05184
   H        2.96223        10.21020        -3.80983
   H        3.70685         7.88427        -3.96430
   H        0.09895        11.28481        -1.55957
   H        2.15338        12.14575        -3.65517
   H        1.37787        14.32615        -3.40473
   H        0.04691        16.19530        -2.51843
   H       -1.77169        16.75847        -0.79019
   H       -3.38849        16.71592         0.94989
   H       -5.05963        16.06109         2.77013
   H       -4.78364        12.24533         3.68664
   H      -11.62654        12.44250         8.85670
   H      -12.25616        15.10615         8.81080
   H       -9.97742        16.66396         5.77058
*
