# ORCA input file
# SCF done       -258.298950228835          0.000696285919
! CAM-B3LYP def2-SVP def2/J RIJCOSX Grid4 TightSCF
%maxcore 5000
%tddft
    Mode sTDDFT
    Ethresh 5.0
    maxcore 5000
end

%pal
  nprocs 6
  end
* xyz 0 1
   C       -0.55352        -7.83097         0.65333
   C       -1.36997        -8.57505        -0.18741
   C       -0.83998        -9.45238        -1.22044
   N       -1.67073       -10.32890        -1.81510
   C       -2.95113       -10.27794        -1.54594
   C       -3.49621        -9.20082        -0.76343
   N       -2.70459        -8.42632        -0.06554
   C       -4.88715        -8.95978        -0.71898
   N       -6.01666        -8.75649        -0.71051
   C       -3.82365       -11.33563        -1.88695
   N       -4.57903       -12.18636        -2.03520
   C        0.52768        -9.42387        -1.52900
   C        1.34069        -8.66512        -0.67448
   C        0.81485        -7.90754         0.44285
   N        1.78656        -7.29330         1.12853
   S        3.19487        -7.64008         0.44587
   N        2.67452        -8.56437        -0.75275
   C        1.18696        -9.94460        -2.74413
   C        1.60264        -8.95952        -3.64918
   C        2.37642        -9.24649        -4.75338
   C        2.77677       -10.55322        -5.00760
   C        2.34610       -11.54127        -4.15614
   C        1.56794       -11.25083        -3.02279
   N        1.36106       -12.41446        -2.30317
   C        0.62560       -12.52075        -1.07359
   C        1.93840       -13.49829        -2.91237
   O        1.92546       -14.62464        -2.47741
   C        2.54180       -13.02416        -4.23281
   C        1.71094       -13.62436        -5.40525
   C        2.21541       -13.00638        -6.70768
   O        3.25197       -13.23794        -7.28371
   N        1.29630       -12.06898        -7.09630
   C        1.46738       -11.21411        -8.23823
   C        0.20228       -12.04300        -6.24156
   C       -0.84661       -11.15035        -6.19802
   C       -1.81345       -11.32732        -5.20472
   C       -1.75112       -12.43031        -4.35526
   C       -0.67193       -13.29973        -4.38202
   C        0.32691       -13.06988        -5.29854
   C       -2.84507       -10.31150        -4.96607
   C       -4.13767       -10.66508        -4.66982
   C       -5.06826        -9.67767        -4.28988
   C       -6.38543        -9.78463        -3.84712
   C       -7.12095       -11.04867        -3.62642
   C       -7.75301       -11.15541        -2.22394
   N       -7.88544       -12.55994        -1.86914
   C       -8.20790       -11.27925        -4.72085
   N       -8.79771       -12.58884        -4.67752
   C       -6.85419        -8.43831        -3.61346
   C       -8.04958        -7.95905        -3.21940
   C       -8.31686        -6.50149        -3.13410
   C       -7.12682        -5.63112        -3.38375
   C       -5.92321        -6.12621        -3.73442
   C       -5.74755        -7.51712        -3.89280
   C       -4.65915        -8.28671        -4.28483
   C       -3.33242        -7.94988        -4.62112
   C       -2.45350        -8.94120        -4.94111
   C       -8.97247        -6.08867        -1.83442
   C       -8.72840        -6.64681        -0.65361
   C       -9.36361        -6.12856         0.56201
   C       -9.42616        -4.74118         0.74102
   C      -10.09281        -4.15589         1.79731
   C      -10.74691        -4.94397         2.73557
   C      -10.66636        -6.31163         2.60674
   C       -9.97629        -6.90909         1.54202
   N      -10.11692        -8.29050         1.62993
   C       -9.53839        -9.27589         0.75488
   C      -10.90080        -8.65322         2.69155
   O      -11.20596        -9.79032         2.96680
   C      -11.27703        -7.38599         3.45334
   C      -10.69621        -7.44991         4.88828
   C      -10.80224        -6.06229         5.52078
   O      -11.80672        -5.47943         5.85473
   N       -9.53525        -5.55235         5.60464
   C       -9.23888        -4.23429         6.09454
   C       -8.58191        -6.48947         5.23275
   C       -7.21077        -6.36712         5.21767
   C       -6.44601        -7.49334         4.87851
   C       -7.09199        -8.70405         4.60512
   C       -8.47415        -8.79936         4.57156
   C       -9.21972        -7.68125         4.86628
   C       -4.99101        -7.39642         4.83412
   C       -4.21157        -8.21714         3.99096
   C       -2.76328        -8.16869         4.00063
   N       -2.04762        -9.02936         3.24334
   C       -2.68687        -9.89467         2.50287
   C       -4.12152        -9.88960         2.42709
   N       -4.83088        -9.05637         3.14289
   C       -4.79138       -10.80368         1.57981
   N       -5.30530       -11.57905         0.90890
   C       -1.96061       -10.82428         1.72263
   N       -1.42588       -11.57846         1.04426
   C       -2.07174        -7.26727         4.79656
   C       -2.82111        -6.42895         5.61087
   C       -4.27153        -6.49118         5.63728
   N       -4.77393        -5.62191         6.52333
   S       -3.57151        -4.82488         7.22285
   N       -2.34337        -5.51611         6.46519
   H       -0.97839        -7.20749         1.42119
   H        1.31286        -7.93612        -3.45696
   H        2.68667        -8.44864        -5.41086
   H        3.41796       -10.78301        -5.84426
   H        1.04115       -11.85596        -0.31531
   H        0.70286       -13.55181        -0.73192
   H       -0.42273       -12.26566        -1.23107
   H        3.58324       -13.33394        -4.33999
   H        1.79742       -14.71097        -5.38999
   H        2.39910       -11.50021        -8.72499
   H        1.52370       -10.16793        -7.92887
   H        0.63865       -11.33846        -8.93787
   H       -0.92063       -10.33118        -6.89632
   H       -2.52136       -12.57351        -3.61634
   H       -0.60772       -14.11692        -3.68068
   H       -4.43888       -11.69976        -4.72590
   H       -6.40365       -11.87128        -3.71145
   H       -8.75635       -10.71948        -2.22456
   H       -7.13624       -10.58955        -1.51122
   H       -8.35657       -12.65093        -0.97513
   H       -6.95806       -12.96139        -1.75872
   H       -7.75899       -11.12681        -5.70615
   H       -9.00332       -10.53991        -4.59100
   H       -8.12728       -13.29677        -4.95529
   H       -9.09180       -12.80625        -3.72897
   H       -8.87833        -8.61058        -2.98661
   H       -9.05089        -6.28517        -3.93001
   H       -7.28139        -4.56939        -3.26530
   H       -5.08521        -5.46621        -3.90764
   H       -3.02124        -6.91512        -4.60658
   H       -1.42184        -8.70578        -5.16001
   H       -9.65726        -5.25460        -1.90912
   H       -8.04482        -7.47763        -0.57266
   H       -8.92552        -4.11391         0.01870
   H      -10.12212        -3.08051         1.88437
   H      -11.31331        -4.49363         3.53466
   H       -9.83112        -9.08943        -0.27901
   H       -9.92309       -10.24538         1.07277
   H       -8.44989        -9.28012         0.83323
   H      -12.36292        -7.28202         3.52904
   H      -11.24926        -8.20238         5.45379
   H      -10.17976        -3.77962         6.40269
   H       -8.78176        -3.62995         5.30799
   H       -8.56135        -4.28707         6.94857
   H       -6.72773        -5.43620         5.45909
   H       -6.50812        -9.59048         4.42667
   H       -8.95110        -9.73768         4.33553
   H       -0.99529        -7.24766         4.79695
*
