# ORCA input file
# SCF done       -180.719866358681          0.000803067497
! CAM-B3LYP def2-SVP def2/J RIJCOSX Grid4 TightSCF
%maxcore 5000
%tddft
    Mode sTDDFT
    Ethresh 5.0
    maxcore 5000
end

%pal
  nprocs 6
  end
* xyz 0 1
   C        2.58347       -11.14731        -7.13835
   O        1.82064       -10.52938        -6.22110
   C        3.34363       -12.10182        -6.53497
   C        4.35863       -13.14939        -6.74456
   O        4.91432       -13.52333        -7.74129
   N        4.56452       -13.65983        -5.46821
   C        3.80528       -13.07711        -4.44834
   O        3.84700       -13.39986        -3.29253
   C        3.01674       -12.05968        -5.14917
   C        2.06900       -11.06984        -4.99271
   C        1.40286       -10.59882        -3.82742
   C        0.47300        -9.61600        -3.85162
   C       -0.21592        -9.10511        -2.71888
   C       -1.27324        -8.09511        -2.83258
   N       -1.80300        -7.73322        -1.70102
   C       -1.15259        -8.46193        -0.75159
   C       -0.14453        -9.34689        -1.35951
   C        0.55181       -10.06651        -0.31837
   S        1.84843       -11.06974        -0.48677
   C       -0.07682        -9.64136         0.90979
   C       -1.10685        -8.63444         0.60730
   N       -1.67657        -8.16159         1.75149
   C       -1.05762        -8.77059         2.72064
   C       -0.03246        -9.72429         2.28617
   C        0.75197       -10.53352         3.17728
   C        1.00736       -10.09892         4.46454
   C        1.80369       -10.87766         5.31907
   C        2.22179       -10.65245         6.62969
   C        1.94350        -9.44375         7.44910
   C        1.18241        -9.78374         8.74736
   N        0.43036        -8.61987         9.16174
   C        3.24802        -8.67427         7.73535
   N        2.95926        -7.38114         8.33681
   C        3.02391       -11.79267         7.00889
   C        3.66945       -12.09581         8.15135
   C        4.49783       -13.32282         8.28258
   C        4.46725       -14.22966         7.08985
   C        3.80946       -13.91819         5.95670
   C        3.07883       -12.71140         5.86289
   C        2.33075       -12.14751         4.84452
   C        2.03208       -12.57716         3.53305
   C        1.26907       -11.79038         2.73008
   C        5.94944       -12.96607         8.51517
   C        6.48525       -11.80822         8.11442
   C        7.85050       -11.42231         8.28937
   C        8.96046       -12.18690         8.85979
   N       10.09886       -11.54987         8.88183
   C        9.84509       -10.32603         8.33862
   C        8.42810       -10.21832         7.95903
   C        8.16019        -8.92373         7.38989
   S        6.71037        -8.35112         6.86947
   C        9.43853        -8.25896         7.40972
   C       10.45747        -9.14193         8.00742
   N       11.67288        -8.52864         8.03167
   C       11.49182        -7.35518         7.49804
   C       10.11023        -7.10460         7.07441
   C        9.65889        -5.91365         6.45301
   O        8.36005        -5.78432         6.08444
   C       10.32650        -4.75450         6.10625
   C       11.62493        -4.07271         6.11439
   O       12.70055        -4.42345         6.52516
   N       11.35524        -2.84813         5.51017
   C       10.03267        -2.65261         5.11023
   O        9.61063        -1.66226         4.57556
   C        9.36880        -3.90113         5.50191
   C        8.16634        -4.57647         5.50729
   C        6.87060        -4.19397         5.02123
   C        5.80052        -4.98358         5.09903
   H        2.49281       -10.82179        -8.15586
   H        5.21979       -14.40744        -5.28750
   H        1.69212       -11.08034        -2.90418
   H        0.20839        -9.16941        -4.80227
   H       -1.61456        -7.66819        -3.76002
   H       -1.34257        -8.58658         3.74201
   H        0.62720        -9.14768         4.80506
   H        1.28609        -8.77855         6.88089
   H        1.89717       -10.13939         9.50706
   H        0.47352       -10.59503         8.54720
   H        1.07727        -7.85272         9.32418
   H       -0.08790        -8.80365        10.01285
   H        3.81658        -8.59404         6.79486
   H        3.86357        -9.23383         8.44342
   H        2.48798        -6.78430         7.66344
   H        3.82766        -6.92336         8.59333
   H        3.64457       -11.44849         9.01575
   H        4.15210       -13.88122         9.16550
   H        5.03541       -15.14326         7.17391
   H        3.82474       -14.58849         5.10990
   H        2.40894       -13.52468         3.17920
   H        1.02698       -12.10990         1.72985
   H        6.55190       -13.72829         8.98688
   H        5.86340       -11.06818         7.62609
   H        8.90095       -13.19154         9.23959
   H       12.30113        -6.65417         7.38999
   H       12.07009        -2.14791         5.37085
   H        6.83142        -3.20810         4.58072
   H        5.86386        -5.96563         5.53827
   H        4.84347        -4.67063         4.72053
*
