# ORCA input file
# SCF done       -184.248409625780          0.000486834153
! CAM-B3LYP def2-SVP def2/J RIJCOSX Grid4 TightSCF
%maxcore 5000
%tddft
    Mode sTDDFT
    Ethresh 5.0
    maxcore 5000
end

%pal
  nprocs 6
  end
* xyz 0 1
   C        2.40755         2.26061         1.09829
   C        0.94491         2.57398         1.09924
   O        0.35288         3.18113         1.96250
   C        0.44275         2.03791        -0.17552
   C        1.46062         1.33020        -0.81849
   C        2.64556         1.30788         0.03137
   C        3.65622         0.38620        -0.03096
   C        4.65743         0.24662         0.95051
   N        5.48036         0.05929         1.72899
   C        3.81367        -0.55075        -1.07294
   N        4.01826        -1.31199        -1.90725
   C        1.24675         0.75362        -2.07650
   C        0.01240         0.88325        -2.65695
   C       -1.04753         1.56895        -2.02305
   C       -0.83740         2.17220        -0.74885
   C       -1.89681         2.85947        -0.12302
   C       -3.11882         2.94005        -0.73261
   C       -3.33248         2.34506        -1.98607
   C       -2.32045         1.67611        -2.61863
   C        3.24413         2.94007         1.91669
   C        4.66161         3.03263         1.84025
   C        5.54578         3.22520         2.99976
   N        6.81136         3.22518         2.70957
   C        6.88110         3.06206         1.35996
   C        5.52981         2.99002         0.77417
   C        5.62391         2.86602        -0.66171
   S        4.37678         2.95594        -1.73748
   C        7.02809         2.70977        -0.91475
   C        7.77500         2.85020         0.34457
   N        9.11075         2.64609         0.14102
   C        9.22934         2.34389        -1.11380
   C        7.96605         2.34792        -1.86602
   C        7.83701         2.03812        -3.23714
   N        8.84252         1.41114        -3.94664
   C        8.41843         1.23789        -5.22489
   C        8.77017         0.72120        -6.45988
   C        7.68978         1.00163        -7.31976
   N        6.71189         1.67659        -6.61966
   C        7.11766         1.81552        -5.33196
   C        6.75091         2.30370        -4.08992
   C        7.53812         0.71198        -8.69321
   C        8.37136        -0.09537        -9.40600
   C        8.22527        -0.38431       -10.77943
   C        7.36216         0.28657       -11.76625
   N        7.43049        -0.20491       -12.96436
   C        8.31395        -1.24896       -12.88522
   C        8.85740        -1.35794       -11.52861
   C        9.74487        -2.48060       -11.43785
   S       10.66325        -2.91865       -10.14035
   C        9.66166        -3.10669       -12.73623
   C        8.82274        -2.27889       -13.62999
   N        8.75680        -2.82736       -14.87359
   C        9.45014        -3.92224       -14.81112
   C       10.01723        -4.20932       -13.48325
   C       10.75470        -5.39164       -13.22001
   C       10.96454        -6.08355       -12.07152
   C       12.05092        -7.11718       -12.05689
   O       12.60399        -7.56663       -13.03518
   C       12.29415        -7.40277       -10.63606
   C       11.35867        -6.71632        -9.86030
   C       10.42574        -6.01034       -10.73407
   C        9.19451        -5.53887       -10.36183
   C        8.21617        -5.08158       -11.26578
   N        7.36901        -4.72472       -11.95368
   C        8.70365        -5.52940        -9.03794
   N        8.24223        -5.47393        -7.98892
   C       11.40103        -6.78861        -8.46263
   C       12.36765        -7.56168        -7.87326
   C       13.31223        -8.28989        -8.62920
   C       13.28854        -8.21210       -10.05239
   C       14.23735        -8.93503       -10.80324
   C       15.16959        -9.70930       -10.16893
   C       15.19581        -9.79225        -8.76747
   C       14.28957        -9.09810        -8.01367
   H        2.04158         0.23248        -2.58450
   H       -0.17012         0.44853        -3.62923
   H       -1.72169         3.31316         0.83968
   H       -3.93099         3.46384        -0.25116
   H       -4.30540         2.42027        -2.44876
   H       -2.48253         1.21701        -3.58318
   H        2.76804         3.51602         2.70513
   H        5.20849         3.33814         4.01494
   H       10.20363         2.15288        -1.53079
   H        9.69385         1.05723        -3.54600
   H        9.67471         0.21971        -6.73658
   H        5.82258         1.95389        -6.99922
   H        5.84439         2.79344        -3.79902
   H        6.67825         1.15012        -9.18349
   H        9.18611        -0.59654        -8.90254
   H        6.73718         1.14034       -11.56966
   H        9.56370        -4.55736       -15.67230
   H       11.26396        -5.80975       -14.08629
   H       10.69870        -6.23683        -7.85993
   H       12.41695        -7.62593        -6.79579
   H       14.20819        -8.86441       -11.87908
   H       15.89471       -10.26492       -10.74451
   H       15.94027       -10.41039        -8.28795
   H       14.30754        -9.16032        -6.93521
*
