# ORCA input file
# SCF done       -237.337450427031          0.000793576384
! CAM-B3LYP def2-SVP def2/J RIJCOSX Grid4 TightSCF
%maxcore 5000
%tddft
    Mode sTDDFT
    Ethresh 5.0
    maxcore 5000
end

%pal
  nprocs 6
  end
* xyz 0 1
   C       -2.60429         2.32163         6.81078
   C       -2.58724         3.07772         7.94743
   C       -1.75574         2.82053         9.05988
   N       -1.10193         2.66290         9.98932
   C       -3.40074         4.21074         8.17063
   N       -4.04253         5.12704         8.42528
   C       -1.81277         1.13052         6.54715
   C       -2.11314         0.64227         5.24657
   C       -1.52531        -0.48828         4.72783
   C       -0.60139        -1.16984         5.52354
   C       -0.30640        -0.67484         6.81885
   C       -0.89805         0.46640         7.34476
   S        0.86016        -1.67498         7.62247
   C        0.94203        -2.72482         6.25088
   C        0.13653        -2.35123         5.23236
   C       -3.10730         1.51359         4.61382
   O       -3.57313         1.43659         3.49697
   C       -3.43831         2.55068         5.63578
   C       -4.38623         3.47776         5.43359
   C       -5.17833         3.53483         4.20764
   C       -6.16722         2.59896         3.89253
   C       -6.49579         1.44900         4.74815
   O       -6.02002         1.15366         5.80634
   S       -7.79215         0.49894         3.95708
   C       -7.92762         1.63361         2.56485
   O       -8.75651         1.51080         1.71163
   C       -6.90785         2.68432         2.71122
   C       -6.71721         3.71643         1.78088
   C       -5.75455         4.67486         2.11508
   C       -5.00277         4.57084         3.29001
   C       -3.96872         5.59411         3.46825
   O       -3.18140         5.68227         4.36600
   S       -4.04491         6.72719         2.08098
   C       -5.39248         5.83428         1.28432
   O       -5.87464         6.19652         0.24990
   C       -7.47396         3.75663         0.52212
   C       -8.32201         4.80301         0.26119
   C       -9.08737         4.81361        -0.92387
   C      -10.03441         5.70497        -1.43499
   C      -10.47911         7.06746        -1.02826
   C       -9.83623         7.64846         0.23659
   N       -8.47356         8.07371        -0.01942
   C      -10.27714         8.05929        -2.22016
   N      -11.55315         8.42985        -2.79601
   C      -10.57479         5.08579        -2.63098
   C      -11.58606         5.47269        -3.43441
   C      -12.00131         4.63388        -4.59142
   C      -11.14376         3.44195        -4.85078
   C      -10.15848         3.05885        -4.01080
   C       -9.86556         3.83394        -2.86801
   C       -8.96492         3.67245        -1.81730
   C       -8.05895         2.63555        -1.53804
   C       -7.32244         2.68091        -0.39147
   C      -12.21882         5.51736        -5.79438
   C      -11.43761         5.51886        -6.86483
   C      -11.72499         6.30664        -8.06059
   C      -11.85354         7.70030        -8.07847
   C      -11.58073         8.55634        -6.92030
   O      -11.19599         8.24900        -5.82589
   S      -11.88492        10.26623        -7.37244
   C      -12.32624         9.85290        -9.06214
   O      -12.65906        10.69133        -9.85329
   C      -12.19573         8.40414        -9.24706
   C      -12.39571         7.74580       -10.47021
   C      -12.23674         6.35530       -10.45019
   C      -11.91607         5.65720        -9.28583
   C      -11.82270         4.20148        -9.46017
   O      -11.63356         3.36679        -8.62154
   S      -12.07224         3.80963       -11.19419
   C      -12.32953         5.52502       -11.65724
   O      -12.53200         5.88250       -12.78061
   C      -12.78637         8.41055       -11.70117
   C      -12.21375         9.45297       -12.32273
   C      -11.01614        10.23124       -12.03336
   C       -9.88953         9.79133       -11.39639
   C       -8.74974        10.59341       -11.16664
   N       -7.80190        11.19943       -10.94185
   C       -9.69197         8.47513       -10.93439
   N       -9.45656         7.41954       -10.54829
   C      -11.18972        11.52391       -12.67428
   C      -12.33171        11.47712       -13.51834
   C      -12.97458        10.16045       -13.40535
   O      -13.94077         9.73963       -13.99063
   C      -12.73492        12.55343       -14.27275
   C      -11.98434        13.72933       -14.18821
   C      -10.85514        13.77055       -13.33200
   C      -10.44347        12.68382       -12.57170
   S      -10.09050        15.32678       -13.37626
   C      -11.25770        15.89568       -14.51791
   C      -12.18331        14.97043       -14.85490
   H       -1.77576        -0.83571         3.73744
   H       -0.64318         0.80152         8.33641
   H        1.59902        -3.57182         6.29227
   H        0.05599        -2.88330         4.30187
   H       -4.60312         4.23983         6.17017
   H       -8.42327         5.57873         1.00086
   H      -11.56048         7.01472        -0.85159
   H       -9.95134         6.92786         1.06403
   H      -10.39815         8.54573         0.51975
   H       -7.88417         7.31133        -0.33576
   H       -8.05376         8.47587         0.81007
   H       -9.67893         7.58326        -2.99781
   H       -9.70102         8.90852        -1.83416
   H      -11.44437         8.73659        -3.75518
   H      -12.00417         9.16111        -2.25875
   H      -12.11010         6.40581        -3.27424
   H      -13.00243         4.24317        -4.33090
   H      -11.38119         2.87026        -5.73499
   H       -9.58258         2.16684        -4.20708
   H       -7.96153         1.80829        -2.22407
   H       -6.61678         1.89870        -0.15623
   H      -13.07433         6.17609        -5.73521
   H      -10.59702         4.84345        -6.94001
   H      -13.67998         8.01852       -12.17965
   H      -13.60518        12.48846       -14.90723
   H       -9.58558        12.76548       -11.92491
   H      -11.17906        16.90538       -14.87167
   H      -12.98529        15.14572       -15.54883
*
