# ORCA input file
# SCF done       -251.074627728346          0.000906641767
! CAM-B3LYP def2-SVP def2/J RIJCOSX Grid4 TightSCF
%maxcore 5000
%tddft
    Mode sTDDFT
    Ethresh 5.0
    maxcore 5000
end

%pal
  nprocs 6
  end
* xyz 0 1
   C      -13.32098         5.29496       -10.99439
   C      -13.27200         6.16375       -12.05768
   C      -13.59722         5.81260       -13.38215
   N      -13.85565         5.59056       -14.47959
   C      -12.86638         7.51162       -11.98244
   N      -12.52573         8.60802       -12.02149
   C      -13.62703         3.87085       -11.07599
   C      -13.47556         3.30268        -9.78715
   C      -13.68185         1.96771        -9.53969
   C      -14.04339         1.15050       -10.61592
   C      -14.19371         1.72750       -11.89801
   C      -13.99343         3.08038       -12.14800
   S      -14.65091         0.53429       -13.07430
   C      -14.63336        -0.70130       -11.86336
   C      -14.30327        -0.24935       -10.63419
   C      -13.09991         4.35966        -8.82343
   O      -13.04058         4.22912        -7.61731
   C      -12.97612         5.59882        -9.62661
   C      -12.74055         6.84303        -9.10161
   C      -12.09089         7.08425        -7.87166
   C      -12.31045         8.27201        -7.14259
   N      -13.12760         9.26831        -7.48207
   S      -13.07134        10.39711        -6.33911
   N      -12.03441         9.67739        -5.34712
   C      -11.66810         8.50793        -5.87528
   C      -10.80476         7.56069        -5.27047
   C      -10.51581         6.41408        -6.05555
   C      -11.09707         6.21519        -7.34803
   N      -10.62924         5.22854        -8.12830
   C       -9.79586         4.34600        -7.65924
   C       -9.21912         3.33497        -8.60554
   C       -9.76016         3.47439       -10.02183
   C       -9.39028         4.41506        -6.29018
   C       -8.58424         3.34540        -5.61970
   C       -9.51366         2.23916        -5.11357
   N       -9.69310         5.46123        -5.57460
   C      -10.31947         7.83794        -3.96346
   C       -9.62262         6.99303        -3.16166
   C       -9.06198         7.32164        -1.88394
   C       -9.01745         8.61181        -1.39042
   C       -8.38872         8.87618        -0.16318
   C       -8.17559        10.07884         0.50337
   C       -8.62061        11.42835         0.05308
   C       -9.36761        12.20214         1.15571
   N      -10.38526        13.03908         0.54838
   C       -7.42862        12.23409        -0.49802
   N       -6.99060        11.64442        -1.74863
   C       -7.40268         9.76790         1.68052
   C       -6.84109        10.55494         2.61796
   C       -6.01165         9.99379         3.72348
   C       -5.93927         8.50343         3.75099
   C       -6.48750         7.72797         2.79713
   C       -7.19844         8.30984         1.71994
   C       -7.79366         7.78226         0.59306
   C       -7.87936         6.46484         0.08183
   C       -8.48466         6.25381        -1.11236
   C       -6.51013        10.56501         5.02826
   C       -6.07185        11.73549         5.50337
   C       -6.49464        12.37358         6.71849
   C       -7.35984        11.80367         7.66979
   N       -7.95006        10.60338         7.61637
   S       -8.85149        10.40331         8.92707
   N       -8.54839        11.80448         9.64183
   C       -7.71639        12.51437         8.87376
   C       -7.25725        13.81914         9.15877
   C       -6.39104        14.38820         8.19601
   C       -6.02483        13.67571         7.01052
   N       -5.21963        14.26928         6.10013
   C       -4.77139        15.47468         6.30693
   C       -3.91645        16.09408         5.24153
   C       -3.69906        15.16662         4.05363
   C       -5.09234        16.16538         7.51839
   C       -4.51729        17.50332         7.87127
   C       -3.20312        17.32772         8.63638
   N       -5.87552        15.61801         8.40551
   C       -7.74776        14.44749        10.33660
   C       -7.61956        15.75341        10.68935
   C       -8.18961        16.32050        11.85314
   C       -9.22687        15.89081        12.63121
   C      -10.24748        14.87605        12.47460
   C      -10.80902        14.43137        11.30398
   C      -11.84301        13.47753        11.23422
   N      -12.66634        12.68682        11.10764
   C      -10.46999        14.91205        10.02413
   N      -10.27370        15.28996         8.95774
   C      -10.76837        14.57944        13.80687
   C      -10.27000        15.54623        14.71708
   C       -9.35493        16.45472        14.00281
   O       -8.78429        17.42960        14.44015
   C      -10.61723        15.55576        16.04624
   C      -11.48490        14.55835        16.50184
   C      -11.96226        13.58772        15.58935
   C      -11.61972        13.58295        14.24193
   S      -13.00635        12.44596        16.37626
   C      -12.80362        13.26432        17.88705
   C      -11.99210        14.34139        17.81444
   H      -13.56338         1.56491        -8.54542
   H      -14.12788         3.47404       -13.14163
   H      -14.87652        -1.70523       -12.15274
   H      -14.24328        -0.87226        -9.75987
   H      -13.06415         7.72516        -9.63935
   H       -9.43271         2.33247        -8.22528
   H       -8.13087         3.45557        -8.61281
   H       -9.26352         2.76942       -10.68452
   H       -9.59730         4.48311       -10.39123
   H      -10.82808         3.27558       -10.03773
   H       -8.05668         3.78977        -4.77448
   H       -7.85164         2.92695        -6.31103
   H      -10.22202         2.64600        -4.39599
   H       -8.93656         1.45457        -4.62999
   H      -10.07723         1.80161        -5.93437
   H      -10.57451         8.83053        -3.61652
   H       -9.46373         5.98320        -3.51190
   H       -9.42972         9.43154        -1.95674
   H       -9.32653        11.30099        -0.77178
   H       -8.64825        12.76974         1.77030
   H       -9.87852        11.49084         1.81059
   H       -9.96257        13.74236        -0.04766
   H      -10.93148        13.51452         1.25732
   H       -6.63578        12.27843         0.26969
   H       -7.74864        13.25765        -0.71488
   H       -6.70043        10.68333        -1.60070
   H       -6.20670        12.15668        -2.13625
   H       -6.95319        11.62921         2.61529
   H       -4.99034        10.38193         3.57321
   H       -5.40353         8.07385         4.58379
   H       -6.39312         6.65246         2.83953
   H       -7.45070         5.64688         0.64253
   H       -8.54727         5.25496        -1.51980
   H       -7.26889        10.00031         5.54695
   H       -5.33085        12.30304         4.95471
   H       -2.95297        16.37258         5.67644
   H       -4.39930        17.01662         4.90521
   H       -3.20429        14.25420         4.37489
   H       -3.08343        15.65609         3.30292
   H       -4.65322        14.89921         3.60812
   H       -5.23024        18.02492         8.51066
   H       -4.34827        18.09784         6.97353
   H       -3.37790        16.76268         9.54842
   H       -2.79148        18.29843         8.90046
   H       -2.47037        16.79287         8.03604
   H       -8.28279        13.77176        10.99224
   H       -7.00147        16.39230        10.07613
   H       -7.70701        17.21794        12.23130
   H      -10.23038        16.30973        16.71410
   H      -12.00314        12.81946        13.58541
   H      -13.31321        12.88063        18.74946
   H      -11.75014        14.97081        18.65165
*
