# ORCA input file
# SCF done       -187.805502373410          0.000623857780
! CAM-B3LYP def2-SVP def2/J RIJCOSX Grid4 TightSCF
%maxcore 5000
%tddft
    Mode sTDDFT
    Ethresh 5.0
    maxcore 5000
end

%pal
  nprocs 6
  end
* xyz 0 1
   C       -2.03609        -2.12409        -3.00129
   C       -2.27914        -2.85312        -4.15498
   C       -3.53761        -3.37726        -4.41987
   C       -4.59399        -3.17934        -3.54303
   C       -4.36526        -2.44933        -2.38881
   C       -3.08094        -1.92533        -2.11045
   C       -3.12298        -1.23441        -0.83204
   C       -2.13152        -0.45912        -0.29517
   C       -0.88086        -0.23306        -0.91292
   N        0.15656        -0.01316        -1.35003
   C       -2.21788         0.25453         0.91644
   N       -2.20439         0.86781         1.88801
   C       -4.43002        -1.52594        -0.24042
   C       -5.26823        -2.05290        -1.31897
   C       -6.62340        -1.94827        -1.41453
   C       -7.42690        -1.25888        -0.47614
   N       -8.10121        -0.59945         0.17752
   C       -7.36407        -2.39198        -2.53185
   N       -8.00329        -2.73524        -3.41987
   C       -4.68200        -1.47474         1.09891
   C       -5.76668        -2.08438         1.78417
   N       -6.61221        -2.89899         1.16204
   C       -7.53934        -3.24932         2.07226
   C       -7.27632        -2.60367         3.35906
   C       -8.31426        -2.95673         4.34292
   O       -8.40369        -2.61854         5.50010
   C       -9.20928        -3.83426         3.55601
   C       -8.68768        -3.99508         2.17857
   N       -9.48915        -4.81210         1.45325
   C      -10.45477        -5.15439         2.26938
   C      -10.33811        -4.58273         3.60151
   C       -6.11601        -1.88731         3.21242
   C       -5.49786        -1.11750         4.24622
   C       -4.20028        -0.77794         4.38732
   C       -3.74833        -0.02092         5.51605
   C       -2.47523         0.33074         5.76356
   C       -1.32191        -0.01428         4.87554
   C       -2.16375         1.18741         6.96848
   N       -2.06935         2.57753         6.57852
   C       -3.03638         3.46515         6.75810
   C       -3.01527         4.76278         6.31565
   C       -4.08672         5.61680         6.60444
   N       -5.17522         5.19117         7.26279
   C       -5.98111         6.24556         7.37016
   C       -5.39808         7.44544         6.74161
   C       -6.30385         8.59897         6.90005
   O       -6.14412         9.73962         6.50595
   C       -7.42975         8.02968         7.63888
   C       -7.20620         6.59909         7.90430
   N       -8.24287         6.07871         8.58656
   C       -9.08677         7.07894         8.76417
   C       -8.64077         8.31990         8.20206
   C       -4.17725         7.05579         6.24808
   C       -3.17485         7.82053         5.59476
   C       -3.33084         9.14613         5.34733
   C       -2.33990         9.95300         4.74310
   C       -2.37609        11.31797         4.70971
   C       -1.61190        12.16487         3.80248
   C       -0.46867        11.82737         3.12895
   C        0.20356        10.59316         3.25135
   N        0.80279         9.61532         3.31096
   C        0.21806        12.69136         2.25001
   N        0.82255        13.34113         1.52211
   C       -2.30330        13.44531         3.74710
   C       -3.35215        13.44274         4.69602
   C       -4.18605        14.54035         4.82827
   C       -3.96579        15.64080         4.01347
   C       -2.92942        15.65038         3.09028
   C       -2.08893        14.55696         2.94682
   C       -3.31191        12.18295         5.42345
   C       -3.85339        11.94930         6.65659
   C       -4.71643        12.85069         7.31666
   N       -5.41648        13.55215         7.89439
   C       -3.50642        10.85829         7.48546
   N       -3.18562        10.04685         8.23053
   H       -1.05118        -1.73207        -2.80699
   H       -1.47392        -3.01884        -4.85398
   H       -3.69817        -3.94890        -5.32095
   H       -5.56449        -3.59779        -3.75407
   H       -3.95082        -0.98804         1.72547
   H      -11.24455        -5.80409         1.93417
   H      -11.02380        -4.74396         4.40947
   H       -6.18329        -0.85040         5.04263
   H       -3.45230        -1.08924         3.67461
   H       -4.51974         0.28088         6.21261
   H       -0.38696         0.36652         5.27873
   H       -1.46643         0.40223         3.87812
   H       -1.22860        -1.09468         4.77090
   H       -1.21186         0.88319         7.41535
   H       -2.95146         1.09786         7.71835
   H       -1.28839         2.82971         5.98630
   H       -3.89841         3.14916         7.33075
   H       -2.17342         5.13692         5.75314
   H      -10.01130         6.91730         9.29023
   H       -9.16831         9.25248         8.23591
   H       -2.24080         7.33438         5.34643
   H       -4.27309         9.60833         5.60771
   H       -1.54362         9.44241         4.21811
   H       -4.99806        14.54020         5.53706
   H       -4.61192        16.50100         4.09977
   H       -2.77544        16.51956         2.46921
   H       -1.29283        14.57859         2.22067
*
