# ORCA input file
# SCF done       -201.057544308385          0.000723745876
! CAM-B3LYP def2-SVP def2/J RIJCOSX Grid4 TightSCF
%maxcore 5000
%tddft
    Mode sTDDFT
    Ethresh 5.0
    maxcore 5000
end

%pal
  nprocs 6
  end
* xyz 0 1
   C        1.59032         2.69273        -0.56073
   C        2.30043         3.69125         0.04024
   C        3.50335         4.22080        -0.47033
   N        4.47776         4.69154        -0.85125
   C        1.95094         4.22644         1.29792
   N        1.74878         4.61611         2.35853
   C        2.02377         1.87046        -1.67829
   C        1.23564         0.67895        -1.70370
   C        1.46489        -0.31057        -2.61805
   C        2.51211        -0.15650        -3.55220
   C        3.28580         1.04177        -3.54607
   C        3.02067         2.05512        -2.59793
   C        4.32587         1.18093        -4.48693
   C        4.59872         0.18056        -5.38041
   C        3.84551        -1.00362        -5.37476
   C        2.82084        -1.16913        -4.48221
   C        0.23606         0.72826        -0.63023
   O       -0.53196        -0.13343        -0.26840
   C        0.34885         2.11158        -0.07193
   C       -0.67513         2.68176         0.59588
   C       -0.79658         4.07777         0.91288
   N       -0.42286         5.00265         0.05145
   C       -0.74038         6.19315         0.61765
   C       -1.38752         5.99805         1.91546
   C       -1.70993         7.28938         2.54238
   O       -2.26169         7.50009         3.59795
   C       -1.18471         8.25673         1.55325
   C       -0.60942         7.53852         0.39042
   N       -0.10104         8.41700        -0.50968
   C       -0.30781         9.59909         0.01144
   C       -0.97047         9.57137         1.30566
   C       -1.40680         4.64455         2.14124
   C       -1.87469         3.96788         3.29827
   C       -1.60509         2.67204         3.58012
   C       -2.06529         1.90928         4.68424
   S       -1.93734         0.19376         4.51562
   C       -2.67544        -0.05815         6.06358
   C       -2.98144         1.17197         6.68619
   C       -2.66369         2.28880         5.88989
   C       -2.91065         3.70189         6.20424
   C       -4.11732         4.21590         6.38591
   O       -3.48642         1.10739         7.92853
   C       -3.48955         2.24098         8.76974
   C       -2.86673        -1.34902         6.57848
   C       -2.56805        -2.45630         5.83309
   C       -2.63733        -3.78157         6.28824
   N       -3.16260        -4.12761         7.46525
   C       -3.13850        -5.46337         7.50704
   C       -2.56654        -6.03069         6.27320
   C       -2.54707        -7.50643         6.33095
   O       -2.13042        -8.28151         5.49925
   C       -3.15540        -7.77618         7.64237
   C       -3.49767        -6.51308         8.32802
   N       -4.05130        -6.75887         9.53502
   C       -4.07279        -8.07043         9.64242
   C       -3.52969        -8.76458         8.50043
   C       -2.21219        -4.96625         5.48966
   C       -1.58425        -4.99799         4.20968
   C       -0.79541        -4.02186         3.69296
   C       -0.24919        -4.09678         2.38837
   C        0.46937        -3.09511         1.80139
   C        1.11360        -3.14140         0.50165
   C        0.84235        -4.00913        -0.52176
   C        1.44374        -3.92475        -1.79278
   N        1.88115        -3.88451        -2.85412
   C       -0.11746        -5.04329        -0.47971
   N       -0.88173        -5.89831        -0.52611
   C        2.05508        -2.03018         0.43797
   C        1.83427        -1.18719         1.56346
   C        0.80351        -1.79051         2.42875
   O        0.34433        -1.31144         3.44580
   C        2.55593        -0.04485         1.75731
   C        3.58712         0.28209         0.84679
   C        3.84645        -0.58416        -0.25401
   C        3.05376        -1.73820        -0.45181
   C        4.90283        -0.26974        -1.13185
   C        5.66665         0.84846        -0.93537
   C        5.41189         1.70143         0.14795
   C        4.39256         1.42495         1.01904
   H        0.86053        -1.20503        -2.62996
   H        3.61181         2.95728        -2.61853
   H        4.90716         2.09114        -4.48256
   H        5.40021         0.29527        -6.09478
   H        4.08047        -1.78514        -6.08116
   H        2.24599        -2.08255        -4.46205
   H       -1.51503         2.04265         0.84612
   H       -0.00049        10.48634        -0.51447
   H       -1.21935        10.43145         1.89521
   H       -2.47096         4.56739         3.97090
   H       -0.98997         2.10641         2.89153
   H       -2.03139         4.33425         6.23373
   H       -5.00899         3.61402         6.31314
   H       -4.25681         5.26309         6.59025
   H       -3.59704         1.84807         9.78036
   H       -4.32817         2.90481         8.54576
   H       -2.55656         2.80266         8.68994
   H       -3.23641        -1.45329         7.58814
   H       -2.25137        -2.30236         4.81182
   H       -4.47184        -8.53364        10.52816
   H       -3.45598        -9.82850         8.39151
   H       -1.74954        -5.90401         3.63706
   H       -0.53965        -3.15126         4.27663
   H       -0.40946        -5.01869         1.84291
   H        2.36508         0.59045         2.61054
   H        3.27702        -2.37717        -1.29186
   H        5.09890        -0.93262        -1.96205
   H        6.47449         1.08016        -1.61253
   H        6.02494         2.57801         0.28923
   H        4.19829         2.07325         1.86219
*
