# ORCA input file
# SCF done       -159.799844284876          0.000288861452
! CAM-B3LYP def2-SVP def2/J RIJCOSX Grid4 TightSCF
%maxcore 5000
%tddft
    Mode sTDDFT
    Ethresh 5.0
    maxcore 5000
end

%pal
  nprocs 6
  end
* xyz 0 1
   C        2.98338        -5.95451        -2.82099
   C        2.88010        -6.81172        -1.74050
   C        1.74540        -6.77951        -0.95245
   F        1.64134        -7.66348         0.05537
   C        0.68764        -5.90102        -1.20406
   C        0.79029        -5.06096        -2.31212
   C        1.92896        -5.09814        -3.09152
   F        2.01600        -4.27191        -4.15148
   C       -0.48155        -5.86094        -0.34813
   C       -1.86635        -5.78903        -0.80511
   N       -2.74902        -5.79025         0.15679
   C       -2.02998        -5.85033         1.30901
   C       -0.58517        -5.90765         1.01670
   C        0.16892        -5.86168         2.25015
   S        1.79374        -5.64659         2.39834
   C       -0.83396        -5.87149         3.28254
   C       -2.17503        -5.83994         2.67294
   N       -3.13894        -5.75691         3.63224
   C       -2.49657        -5.68987         4.76383
   C       -1.04046        -5.74462         4.64232
   C       -0.09862        -5.69443         5.72393
   C        1.15585        -6.25487         5.57030
   C        2.09636        -6.15953         6.60628
   C        3.41291        -6.61088         6.68350
   C        4.15000        -7.35232         5.62514
   C        5.41132        -6.59037         5.16560
   N        5.74778        -7.00327         3.82407
   C        4.47945        -8.78254         6.09286
   N        5.01589        -9.57020         4.99446
   C        3.91389        -6.20139         7.97407
   C        5.12124        -6.34007         8.55647
   C        5.40692        -5.79565         9.91180
   C        4.25585        -5.09924        10.56298
   C        3.05073        -4.97410         9.97455
   C        2.83221        -5.49392         8.67821
   C        1.73397        -5.47759         7.83799
   C        0.43365        -4.94367         7.98015
   C       -0.45140        -5.05470         6.95522
   C        5.86651        -6.91727        10.81052
   C        7.07383        -6.94961        11.38242
   C        7.54936        -7.97567        12.25849
   C        6.84569        -9.15999        12.75158
   N        7.54918        -9.91235        13.55169
   C        8.76366        -9.30084        13.65423
   C        8.79346        -8.07880        12.83526
   C       10.06875        -7.42384        12.95657
   S       10.50813        -5.99974        12.26144
   C       10.81979        -8.27020        13.85707
   C        9.97870        -9.41499        14.27724
   N       10.64553       -10.19962        15.16369
   C       11.79830        -9.61924        15.34639
   C       11.98868        -8.39470        14.56544
   C       13.17926        -7.57114        14.56281
   C       13.55979        -6.87498        13.41328
   C       14.70150        -6.10067        13.42434
   F       15.05781        -5.45190        12.30139
   C       15.49865        -5.97333        14.55030
   C       15.13031        -6.65114        15.69822
   C       13.99441        -7.43773        15.69241
   F       13.66048        -8.06767        16.83662
   H        3.85767        -5.94863        -3.45120
   H        3.66951        -7.50548        -1.50009
   H       -0.00152        -4.36728        -2.54712
   H       -2.17611        -5.76844        -1.83533
   H       -3.04334        -5.64340         5.68982
   H        1.40521        -6.77184         4.65821
   H        3.50971        -7.42809         4.74115
   H        6.22279        -6.75703         5.89309
   H        5.18971        -5.51813         5.14653
   H        5.95446        -7.99724         3.81788
   H        6.54009        -6.48631         3.46387
   H        3.56439        -9.21888         6.53080
   H        5.23873        -8.75237         6.87939
   H        4.31855        -9.66096         4.26181
   H        5.25252       -10.50361         5.31399
   H        5.93829        -6.85804         8.07602
   H        6.24304        -5.08642         9.81887
   H        4.44227        -4.70789        11.55127
   H        2.24256        -4.46349        10.47758
   H        0.15836        -4.44358         8.89689
   H       -1.43909        -4.62948         7.04665
   H        5.13806        -7.69698        10.97871
   H        7.78409        -6.15414        11.19179
   H        5.83634        -9.43742        12.50293
   H       12.52689       -10.05459        16.00636
   H       12.96981        -6.94385        12.51413
   H       16.38181        -5.35624        14.52131
   H       15.71432        -6.57768        16.60174
*
