# ORCA input file
# SCF done       -209.994518949502          0.000849967634
! CAM-B3LYP def2-SVP def2/J RIJCOSX Grid4 TightSCF
%maxcore 5000
%tddft
    Mode sTDDFT
    Ethresh 5.0
    maxcore 5000
end

%pal
  nprocs 6
  end
* xyz 0 1
   C        5.06900         6.59264         4.17602
   C        4.06239         7.51674         4.13338
   F        4.20018         8.67668         4.80082
   C        2.87818         7.30585         3.41406
   C        2.72094         6.13347         2.72862
   C        3.72722         5.14591         2.73758
   C        4.92354         5.37862         3.47700
   C        5.94339         4.39890         3.50877
   C        5.77190         3.22937         2.81919
   C        4.58123         3.00987         2.06762
   C        3.57760         3.93393         2.02698
   C        4.66664         1.70278         1.38811
   O        3.82822         1.16262         0.70475
   C        6.04399         1.20714         1.66992
   C        6.61579         2.04271         2.70364
   C        7.60463         1.68636         3.58431
   C        8.17918         0.39898         3.61479
   N        8.62907        -0.65321         3.69855
   C        8.11135         2.53793         4.58361
   N        8.58592         3.21446         5.38134
   C        6.55667         0.21681         0.88905
   C        7.90889        -0.14672         0.68158
   C        9.05077         0.57362         0.93064
   C       10.23677        -0.07569         0.53785
   C       11.56548         0.37199         0.71590
   C       11.88044         1.57064         1.46163
   C       12.88210         2.47472         1.23954
   C       12.92684         3.48885         2.21790
   C       11.98378         3.37488         3.20042
   S       11.00056         1.98517         2.91278
   C       11.76388         4.25121         4.37812
  Cl       14.07551         4.76919         2.17751
   C       12.56021        -0.43366         0.17369
   C       12.29661        -1.66277        -0.48322
   C       10.97776        -2.14987        -0.58291
   C        9.97482        -1.32272        -0.08744
   S        8.27222        -1.66656        -0.11221
   C       10.66751        -3.45397        -1.13224
   C        9.59191        -3.81570        -1.89201
   C        9.56818        -5.19681        -2.18286
   C       10.60260        -5.90660        -1.64620
   S       11.65001        -4.84801        -0.76496
   C       10.87851        -7.36264        -1.73301
  Cl        8.32613        -5.91208        -3.13676
   C       13.48125        -2.25578        -0.98243
   C       14.61431        -1.55750        -0.68773
   S       14.27068        -0.10934         0.23418
   C       15.96271        -1.87377        -1.07093
   C       16.26191        -2.63841        -2.20893
   N       17.48626        -2.92009        -2.57731
   C       18.48736        -2.45686        -1.81319
   N       18.31070        -1.72021        -0.70365
   C       17.08481        -1.43121        -0.35227
   C       19.83177        -2.74214        -2.17933
   C       20.34462        -3.32805        -3.34563
   C       21.76858        -3.40482        -3.32995
   C       22.44342        -3.95890        -4.43306
   C       21.72185        -4.41118        -5.50329
   C       20.31702        -4.33202        -5.51644
   C       19.62845        -3.80156        -4.46120
   C       22.32755        -2.90009        -2.13788
   S       21.09008        -2.30738        -1.08167
   C       23.69436        -2.87758        -1.79419
   C       24.18837        -2.53694        -0.57494
   C       25.55906        -2.54459        -0.24208
   S       26.82742        -2.84478        -1.41412
   C       28.09841        -2.70766        -0.23473
   C       27.55671        -2.44661         1.01830
   C       26.13706        -2.35109         0.99836
   S       25.47608        -2.04533         2.57190
   C       27.09492        -2.05351         3.24252
   C       27.28916        -1.86248         4.68035
   O       28.36836        -1.85833         5.22224
   O       26.11742        -1.71129         5.30903
   C       26.16072        -1.51788         6.72171
   C       26.43890        -0.06479         7.07802
   C       28.07698        -2.26773         2.32367
   C       29.47987        -2.85284        -0.56722
   C       29.94919        -3.08607        -1.79394
   H        5.96565         6.78790         4.74322
   H        2.11861         8.07138         3.41694
   H        1.81768         5.94781         2.16721
   H        6.84082         4.60268         4.07134
   H        2.67987         3.74357         1.45818
   H        5.82591        -0.31331         0.28574
   H        9.03069         1.57292         1.32442
   H       13.54342         2.44985         0.39369
   H       11.80706         5.29775         4.07896
   H       12.54294         4.08443         5.12324
   H       10.79904         4.04340         4.83509
   H        8.85738        -3.12798        -2.26714
   H       10.20145        -7.82146        -2.44925
   H       10.73547        -7.83774        -0.76219
   H       11.90609        -7.54192        -2.04529
   H       13.49394        -3.17492        -1.53758
   H       15.47648        -3.01403        -2.85278
   H       16.96770        -0.83063         0.54219
   H       23.52068        -4.02235        -4.43090
   H       22.23155        -4.83638        -6.35508
   H       19.78151        -4.69900        -6.37940
   H       18.55323        -3.73523        -4.45306
   H       24.39169        -3.18232        -2.56388
   H       23.51209        -2.26216         0.22439
   H       26.93776        -2.16547         7.14200
   H       25.17777        -1.83203         7.07853
   H       27.42438         0.22268         6.71950
   H       26.40843         0.05681         8.15681
   H       25.69264         0.58325         6.62464
   H       29.11774        -2.30197         2.58878
   H       30.15912        -2.75713         0.26969
   H       29.28646        -3.18284        -2.63807
   H       31.00242        -3.18350        -1.98526
*
