# ORCA input file
# SCF done       -247.136588497793          0.000914360681
! CAM-B3LYP def2-SVP def2/J RIJCOSX Grid4 TightSCF
%maxcore 5000
%tddft
    Mode sTDDFT
    Ethresh 5.0
    maxcore 5000
end

%pal
  nprocs 6
  end
* xyz 0 1
   C        3.69419         4.99450        -5.72132
   C        2.52240         5.68806        -5.84509
   F        1.84176         5.63512        -7.00461
   C        1.99275         6.46064        -4.80299
   C        2.67074         6.52471        -3.61729
   C        3.88313         5.82897        -3.43457
   C        4.40648         5.05058        -4.50790
   C        5.62642         4.35122        -4.35109
   C        6.29067         4.42364        -3.15783
   C        5.75506         5.19006        -2.08208
   C        4.58696         5.88346        -2.20988
   C        6.63754         5.06099        -0.90437
   O        6.52529         5.59991         0.17344
   C        7.66307         4.06047        -1.30070
   C        7.56547         3.85814        -2.72499
   C        8.57961         3.45879        -3.56145
   C        9.90922         3.30587        -3.11750
   N       11.00931         3.24063        -2.79537
   C        8.42710         3.23425        -4.93987
   N        8.34612         2.98122        -6.05810
   C        8.34630         3.39619        -0.31717
   C        8.97147         2.14279        -0.34597
   S        8.88534         1.03404        -1.69311
   C        9.75759        -0.21863        -0.86133
   C       10.06476         0.19892         0.41946
   C        9.63601         1.52015         0.72148
   C       10.00504         1.90434         2.02797
   C       10.68264         0.91225         2.67792
   C       11.23960         0.92393         4.03548
   O       11.83970        -0.00049         4.52409
   O       10.99848         2.08257         4.66199
   C       11.51308         2.18482         5.98313
   S       10.90913        -0.54092         1.73805
   C       10.05085        -1.41861        -1.55340
   C        9.99677        -1.56967        -2.91330
   C       10.32397        -2.86586        -3.35700
   C       10.34729        -3.34048        -4.68805
   C       10.00704        -2.50453        -5.81888
   C       10.56770        -2.52042        -7.06633
   C        9.98752        -1.57854        -7.94131
   C        8.97418        -0.84287        -7.39545
   S        8.72646        -1.31828        -5.75157
   C        8.16153         0.23400        -8.00831
  Cl       10.52695        -1.38497        -9.56423
   C       10.71380        -4.67229        -4.85053
   C       11.01844        -5.53287        -3.76598
   C       10.97992        -5.06349        -2.43499
   C       10.65482        -3.72096        -2.27298
   S       10.53903        -2.88791        -0.74361
   C       11.21123        -5.92596        -1.29466
   C       11.81914        -5.61300        -0.11182
   C       11.80131        -6.67739         0.81558
   C       11.17523        -7.80812         0.37484
   S       10.60110        -7.56311        -1.23955
   C       10.94820        -9.08816         1.08848
  Cl       12.51129        -6.53706         2.37752
   C       11.33630        -6.83608        -4.20279
   C       11.23926        -7.00980        -5.55659
   S       10.79355        -5.52529        -6.36892
   C       11.44266        -8.23201        -6.27353
   C       11.47020        -9.44060        -5.61873
   C       11.64525       -10.67367        -6.23409
   C       11.82880       -10.79030        -7.67911
   C       11.83032        -9.72797        -8.51920
   S       11.62441        -8.10383        -8.00807
   C       11.96740       -12.18391        -7.92521
   C       11.87624       -12.89855        -6.72575
   C       11.95368       -14.29227        -6.93672
   C       12.11278       -14.58939        -8.25330
   S       12.17161       -13.20563        -9.29035
   C       11.68617       -11.96064        -5.64609
   C       11.55735       -12.18085        -4.26743
   C       11.72606       -13.34953        -3.57058
   C       11.54173       -13.34429        -2.18358
   C       11.66388       -14.31597        -1.21924
   C       11.67507       -13.84097         0.18620
   O       11.45743       -12.70611         0.56372
   C       12.04666       -15.00546         1.00567
   C       12.24809       -15.08084         2.35299
   C       12.62867       -16.31535         2.92513
   C       12.80576       -17.44643         2.07770
   C       13.19075       -18.67468         2.64908
   C       13.38050       -18.75574         4.00050
   C       13.20931       -17.65546         4.85098
   C       12.83909       -16.45466         4.31191
   F       13.74543       -19.93004         4.54928
   C       12.58903       -17.33600         0.68363
   C       12.20273       -16.13498         0.15340
   C       11.87288       -15.74050        -1.22067
   C       11.67000       -16.64099        -2.23957
   C       11.16119       -16.36469        -3.52035
   N       10.73042       -16.25427        -4.58058
   C       11.87599       -18.03143        -2.12175
   N       12.03116       -19.16956        -2.11424
   H        4.07330         4.41217        -6.54657
   H        1.06409         6.98645        -4.95827
   H        2.28245         7.11286        -2.79944
   H        6.00021         3.76460        -5.17572
   H        4.20194         6.46698        -1.38713
   H        8.29043         3.85959         0.66321
   H        9.79329         2.85765         2.47514
   H       12.60397         2.14124         5.96780
   H       11.13759         1.36646         6.60045
   H       11.17394         3.14342         6.36627
   H        9.75481        -0.74933        -3.56293
   H       11.39534        -3.14324        -7.35049
   H        8.29664         1.17016        -7.46430
   H        7.10212        -0.01895        -7.97749
   H        8.46284         0.37771        -9.04269
   H       12.29973        -4.67440         0.09217
   H       11.38068        -9.03067         2.08364
   H       11.39602        -9.92982         0.56041
   H        9.88082        -9.29082         1.18030
   H       11.65723        -7.60877        -3.53187
   H       11.31793        -9.41885        -4.55055
   H       11.96184        -9.83025        -9.58473
   H       11.85721       -15.04691        -6.17779
   H       12.19749       -15.56142        -8.69812
   H       11.29784       -11.30733        -3.68024
   H       12.02717       -14.24456        -4.08397
   H       11.31544       -12.37095        -1.75184
   H       12.11665       -14.20904         2.97640
   H       13.32863       -19.54372         2.02476
   H       13.37271       -17.77959         5.90980
   H       12.70130       -15.59211         4.94664
   H       12.74042       -18.21166         0.07384
*
