# ORCA input file
# SCF done       -266.954712681173          0.000966691413
! CAM-B3LYP def2-SVP def2/J RIJCOSX Grid4 TightSCF
%maxcore 5000
%tddft
    Mode sTDDFT
    Ethresh 5.0
    maxcore 5000
end

%pal
  nprocs 6
  end
* xyz 0 1
   C        7.08829        -1.67321       -11.55847
   C        6.25720        -1.95318       -12.60707
   F        6.76534        -2.03952       -13.84971
   C        4.88044        -2.15783       -12.44155
   C        4.34602        -2.07564       -11.18605
   C        5.15712        -1.79121       -10.06824
   C        6.55474        -1.58348       -10.25794
   C        7.38729        -1.28803        -9.15358
   C        6.83845        -1.20918        -7.90202
   C        5.44364        -1.43432        -7.71637
   C        4.61604        -1.71221        -8.76572
   C        5.11941        -1.33188        -6.28049
   O        4.03300        -1.40974        -5.75518
   C        6.43320        -1.17388        -5.59318
   C        7.43129        -0.89187        -6.60618
   C        8.61006        -0.22149        -6.41496
   C        9.00924         0.30796        -5.17103
   N        9.35679         0.80537        -4.19678
   C        9.52400         0.07378        -7.44606
   N       10.31514         0.29956        -8.24697
   C        6.51341        -1.39984        -4.25832
   C        7.66100        -1.67569        -3.43906
   C        8.82007        -2.27546        -3.96098
   C        9.86765        -2.55863        -3.12340
   C        9.79110        -2.25344        -1.75167
   C        8.64877        -1.66772        -1.22337
   C        7.59053        -1.40046        -2.06539
   C       11.01634        -2.68477        -1.11750
   C       11.85451        -3.24757        -2.09590
   C       11.19255        -3.20466        -3.45303
   C       10.99936        -4.61975        -4.02951
   C       10.20221        -5.53224        -3.10497
   C       12.00079        -2.34623        -4.44535
   C       12.31226        -0.95340        -3.91168
   C       13.08897        -3.74285        -1.75411
   C       13.50216        -3.71595        -0.41330
   C       12.65638        -3.14736         0.54870
   C       11.42499        -2.62757         0.20790
   C       14.78813        -4.27900        -0.07100
   C       15.17514        -4.67021         1.15657
   C       16.44953        -5.23688         1.45886
   C       16.84273        -5.75542         2.66026
   C       18.16931        -6.24712         2.66884
   C       18.86272        -6.85761         3.73359
   C       18.19394        -7.16804         4.98080
   C       16.94190        -7.68667         5.14926
   C       16.60940        -7.87395         6.50832
   C       17.58630        -7.50203         7.38537
   S       18.96473        -6.90925         6.52188
   C       17.57754        -7.55546         8.86862
  Cl       15.09006        -8.52251         6.99943
   C       20.20111        -7.15654         3.51109
   C       20.85137        -6.93226         2.27200
   C       20.13434        -6.39600         1.18148
   C       18.81268        -6.04243         1.42225
   S       17.72776        -5.32800         0.26277
   C       20.76586        -6.23714        -0.11244
   C       21.60654        -7.10851        -0.74446
   C       22.05463        -6.62431        -1.99224
   C       21.57393        -5.39114        -2.32453
   S       20.52718        -4.80552        -1.07596
   C       21.84484        -4.58288        -3.53983
  Cl       23.12224        -7.52968        -2.99740
   C       22.21956        -7.28475         2.32453
   C       22.60735        -7.79555         3.53169
   S       21.28430        -7.86279         4.67853
   C       23.90243        -8.23373         3.91709
   C       24.28181        -8.74287         5.14477
   C       25.63739        -9.06746         5.17752
   C       26.29432        -8.80123         3.96339
   S       25.23991        -8.15525         2.78341
   C       27.66086        -9.14784         4.09925
   C       27.86454        -9.64088         5.40520
   C       26.60402        -9.59887         6.12512
   C       26.39342        -9.95313         7.42526
   C       25.12479        -9.86483         8.03568
   N       24.09441        -9.80014         8.53408
   C       27.44511       -10.43456         8.23342
   N       28.30982       -10.82790         8.87576
   C       29.18630        -9.97858         5.65640
   C       30.00705        -9.74582         4.56108
   S       29.09467        -9.12834         3.18535
   C       31.39087        -9.97718         4.42500
   C       32.32315       -10.16994         5.40132
   C       33.61079       -10.82767         5.03804
   O       34.03092       -11.01862         3.91969
   C       34.21174       -11.23820         6.32016
   C       35.32819       -11.99051         6.54620
   C       35.69359       -12.29836         7.87592
   C       34.88405       -11.82653         8.95037
   C       35.24586       -12.15020        10.27235
   C       36.36510       -12.90268        10.49652
   C       37.17630       -13.37236         9.45446
   C       36.83790       -13.06986         8.16488
   F       36.71364       -13.21223        11.75836
   C       33.73776       -11.04063         8.68696
   C       33.41419       -10.74251         7.39154
   C       32.32725        -9.94348         6.83017
   C       31.64169        -8.97336         7.51517
   C       30.76260        -8.05437         6.91140
   N       30.05973        -7.26903         6.45506
   C       31.81117        -8.71734         8.89207
   N       31.91383        -8.46270        10.00613
   H        8.14291        -1.51739       -11.72394
   H        4.27428        -2.37546       -13.30655
   H        3.28846        -2.22969       -11.03302
   H        8.44231        -1.14082        -9.32386
   H        3.56032        -1.87057        -8.60415
   H        5.55267        -1.44452        -3.75281
   H        8.85927        -2.54961        -5.00545
   H        8.58421        -1.43500        -0.17144
   H        6.69258        -0.94554        -1.67391
   H       11.98205        -5.05940        -4.21173
   H       10.48779        -4.53934        -4.99115
   H       10.70569        -5.64245        -2.14706
   H       10.09558        -6.51748        -3.55292
   H        9.20876        -5.12698        -2.92503
   H       11.43483        -2.26064        -5.37601
   H       12.93520        -2.86427        -4.67257
   H       11.39839        -0.41393        -3.67307
   H       12.85750        -0.38387        -4.66067
   H       12.92155        -1.01295        -3.01265
   H       13.74144        -4.17252        -2.50075
   H       12.98456        -3.09517         1.57531
   H       10.79098        -2.18418         0.96084
   H       15.47591        -4.42529        -0.89566
   H       14.50211        -4.59448         1.99979
   H       16.20487        -5.76316         3.52504
   H       16.29363        -7.96985         4.34071
   H       16.64499        -7.99390         9.21508
   H       17.67568        -6.55521         9.28966
   H       18.41015        -8.15514         9.23417
   H       21.86549        -8.07906        -0.36356
   H       22.46870        -5.14987        -4.22624
   H       22.35891        -3.65814        -3.27853
   H       20.91414        -4.31838        -4.03979
   H       22.90551        -7.14024         1.50945
   H       23.59192        -8.86078         5.96102
   H       29.54234       -10.41566         6.57130
   H       31.76408       -10.08513         3.41103
   H       35.92491       -12.34887         5.72082
   H       34.64643       -11.80224        11.09900
   H       38.04771       -13.96157         9.69229
   H       37.44678       -13.42109         7.34542
   H       33.13593       -10.70547         9.51677
*
