# ORCA input file
# SCF done       -255.537678089260          0.000976595091
! CAM-B3LYP def2-SVP def2/J RIJCOSX Grid4 TightSCF
%maxcore 5000
%tddft
    Mode sTDDFT
    Ethresh 5.0
    maxcore 5000
end

%pal
  nprocs 6
  end
* xyz 0 1
   C       -5.63182         1.24571         5.20179
   C       -4.67609         2.08322         4.64742
   C       -4.04035         1.75695         3.45715
   C       -4.34730         0.58531         2.78269
   C       -5.30048        -0.26053         3.32663
   C       -5.94400         0.06624         4.54292
   C       -6.87582        -0.99818         4.88626
   C       -7.79597        -0.97443         5.89684
   C       -7.96698         0.10962         6.78485
   N       -8.15662         0.95595         7.53614
   C       -8.73168        -1.99730         6.16302
   N       -9.52385        -2.78512         6.42689
   C       -6.63845        -2.08378         3.93422
   C       -5.84025        -1.52088         2.84387
   C       -5.81746        -1.95915         1.54941
   C       -6.59579        -3.02938         1.05725
   N       -7.24939        -3.83888         0.57297
   C       -5.08110        -1.33022         0.52344
   N       -4.48460        -0.86837        -0.34126
   C       -6.98720        -3.38035         4.12924
   C       -6.47719        -4.52646         3.41882
   C       -7.33827        -5.60351         3.16089
   C       -6.87560        -6.68558         2.45226
   C       -5.54141        -6.71405         2.00743
   C       -4.66299        -5.68343         2.31675
   C       -5.13658        -4.59513         3.01507
   C       -5.33597        -7.91753         1.23842
   C       -6.54357        -8.63617         1.19548
   C       -7.63047        -7.90147         1.95501
   C       -8.12719        -8.82070         3.09006
   C       -9.18273        -8.23561         4.01930
   C       -8.75101        -7.38436         1.02605
   C       -9.56447        -8.45066         0.30527
   C       -6.58909        -9.85675         0.56427
   C       -5.44982       -10.35686        -0.08707
   C       -4.26420        -9.60920        -0.05371
   C       -4.19684        -8.40436         0.61111
   C       -5.55053       -11.62579        -0.76745
   C       -4.60528       -12.20017        -1.53524
   C       -4.75655       -13.44762        -2.20899
   C       -3.83411       -14.03630        -3.02871
   C       -4.25511       -15.26870        -3.57835
   C       -3.55285       -16.10701        -4.46745
   C       -2.26754       -15.71537        -5.01068
   C       -1.89728       -14.48971        -5.48449
   C       -0.56329       -14.46600        -5.94640
   C        0.09640       -15.65465        -5.82873
   S       -0.94960       -16.84819        -5.13721
   C        1.49407       -15.98643        -6.20176
  Cl        0.15440       -13.04336        -6.60273
   C       -4.16584       -17.30685        -4.80306
   C       -5.45355       -17.67938        -4.34163
   C       -6.17859       -16.81475        -3.49292
   C       -5.54352       -15.63849        -3.11548
   S       -6.21016       -14.41687        -2.06779
   C       -7.51701       -17.15619        -3.05585
   C       -8.52815       -17.69925        -3.79587
   C       -9.69789       -17.92302        -3.03808
   C       -9.59662       -17.56495        -1.72508
   S       -8.02276       -16.91821        -1.40572
   C      -10.61451       -17.67170        -0.64991
  Cl      -11.12400       -18.59762        -3.73118
   C       -5.83575       -18.95213        -4.82284
   C       -4.90677       -19.52814        -5.64570
   S       -3.49086       -18.51787        -5.85647
   C       -4.97981       -20.78111        -6.30875
   C       -3.99366       -21.36847        -7.08218
   C       -4.40022       -22.59453        -7.60172
   C       -5.71046       -22.94184        -7.22489
   S       -6.43353       -21.75841        -6.22205
   C       -6.02994       -24.18854        -7.80598
   C       -4.92034       -24.63724        -8.55606
   C       -3.86042       -23.64955        -8.44725
   C       -2.62303       -23.69221        -9.01766
   C       -1.67833       -22.65900        -8.83816
   N       -0.90754       -21.82200        -8.69761
   C       -2.20329       -24.76577        -9.83269
   N       -1.85676       -25.62884       -10.50245
   C       -5.15277       -25.85179        -9.18521
   C       -6.41452       -26.36470        -8.90502
   S       -7.34073       -25.27043        -7.87022
   C       -6.94884       -27.53309        -9.48392
   C       -8.07655       -28.23065        -9.14453
   C       -8.81347       -29.09802       -10.05657
   C       -8.36928       -29.64045       -11.23251
   C       -7.07063       -29.49122       -11.76378
   N       -6.03560       -29.41554       -12.25515
   C       -9.15122       -30.46802       -12.06644
   N       -9.72936       -31.14582       -12.79000
   C      -10.14268       -29.27319        -9.48296
   C      -10.16998       -28.68155        -8.19967
   C      -11.32787       -28.68706        -7.44063
   C      -12.46073       -29.28788        -7.96883
   C      -12.43464       -29.87860        -9.22420
   C      -11.27997       -29.87921        -9.99289
   C       -8.84084       -28.17073        -7.90584
   C       -8.32292       -27.97278        -6.65326
   C       -9.08877       -28.01446        -5.47081
   N       -9.66714       -28.01969        -4.47949
   C       -6.94548       -27.80156        -6.40196
   N       -5.82806       -27.70166        -6.15868
   H       -6.11111         1.51191         6.12952
   H       -4.42173         3.00173         5.15372
   H       -3.29491         2.42254         3.04969
   H       -3.84247         0.33816         1.86278
   H       -7.68180        -3.60520         4.92797
   H       -8.36835        -5.52614         3.47129
   H       -3.63045        -5.72634         2.00484
   H       -4.46339        -3.79106         3.27845
   H       -7.25546        -9.10951         3.68415
   H       -8.52225        -9.73030         2.63486
   H       -8.78247        -7.40698         4.59601
   H       -9.50727        -9.00267         4.71959
   H      -10.05430        -7.89508         3.46723
   H       -8.28610        -6.72983         0.28496
   H       -9.42227        -6.76490         1.62197
   H       -8.94822        -9.00408        -0.39772
   H      -10.36265        -7.97018        -0.25650
   H      -10.01859        -9.14753         1.00522
   H       -7.49118       -10.44990         0.55727
   H       -3.37997        -9.98812        -0.54140
   H       -3.27134        -7.84944         0.64563
   H       -6.49423       -12.14662        -0.65227
   H       -3.65160       -11.71798        -1.69898
   H       -2.86766       -13.60589        -3.21656
   H       -2.55705       -13.64421        -5.54840
   H        1.96165       -15.12721        -6.67598
   H        1.51591       -16.82952        -6.89084
   H        2.07232       -16.26037        -5.31960
   H       -8.46616       -17.89264        -4.85081
   H      -11.53213       -18.09199        -1.05375
   H      -10.82939       -16.69131        -0.22641
   H      -10.25620       -18.31284         0.15490
   H       -6.75325       -19.44331        -4.55324
   H       -3.03548       -20.90797        -7.24261
   H       -4.44770       -26.37400        -9.80688
   H       -6.41814       -27.85095       -10.37261
   H      -11.35863       -28.22482        -6.46713
   H      -13.37409       -29.29398        -7.39397
   H      -13.32718       -30.34359        -9.61402
   H      -11.28117       -30.33968       -10.96699
*
