# ORCA input file
# SCF done       -241.717030029636          0.000396425051
! CAM-B3LYP def2-SVP def2/J RIJCOSX Grid4 TightSCF
%maxcore 5000
%tddft
    Mode sTDDFT
    Ethresh 5.0
    maxcore 5000
end

%pal
  nprocs 6
  end
* xyz 0 1
   C        1.05603         2.07825         3.03792
   C        1.61999         3.32103         3.17112
   C        2.22370         3.78627         4.35514
   N        2.70031         4.22606         5.30291
   C        1.67303         4.27061         2.13350
   N        1.74964         5.07399         1.31602
   C        1.16361         0.99531         4.00841
   C        0.89615        -0.23787         3.34437
   C        0.95324        -1.43309         4.00060
   C        1.27273        -1.44922         5.37738
   C        1.52371        -0.21892         6.05092
   C        1.46668         1.00395         5.34307
   C        1.83136        -0.24888         7.42628
   C        1.89156        -1.43536         8.10514
   C        1.64610        -2.64621         7.44075
   C        1.34405        -2.65278         6.10599
   C        0.55306         0.03225         1.93563
   O        0.32927        -0.76615         1.05563
   C        0.47669         1.51873         1.83540
   C       -0.16521         2.08540         0.78119
   C       -0.69283         3.40242         0.66079
   C       -1.12587         4.18671         1.75633
   C       -1.58145         5.53208         1.57324
   N       -1.92138         6.27321         2.64101
   C       -1.84435         5.75190         3.83179
   C       -1.48749         4.39803         4.00154
   N       -1.14815         3.64662         2.99229
   C       -1.66617         6.14605         0.30175
   C       -1.32943         5.33317        -0.79956
   C       -0.86275         3.97868        -0.61337
   N       -0.57703         3.38942        -1.77677
   S       -0.87197         4.41476        -2.96925
   N       -1.36877         5.66212        -2.09431
   C       -2.05144         7.50923         0.18359
   C       -2.13967         8.23611        -0.97918
   C       -2.57489         9.55976        -0.78747
   C       -2.79800        10.54336        -1.77885
   C       -2.67662        10.22023        -3.18307
   C       -3.06193         9.07053        -3.81497
   C       -2.77058         9.08479        -5.19463
   C       -2.16440        10.22719        -5.63334
   S       -1.95290        11.32951        -4.31655
   C       -1.71674        10.57642        -7.00435
  Cl       -3.14932         7.75667        -6.22358
   C       -3.14532        11.80618        -1.32045
   C       -3.33753        12.11186         0.05251
   C       -3.17710        11.10859         1.03487
   C       -2.77358         9.85521         0.58639
   S       -2.47525         8.45201         1.58835
   C       -3.43651        11.34753         2.43909
   C       -2.78680        10.81556         3.51680
   C       -3.35426        11.20851         4.74720
   C       -4.44187        12.02557         4.63630
   S       -4.77479        12.33618         2.96759
   C       -5.26637        12.62988         5.71283
  Cl       -2.72155        10.68386         6.25989
   C       -3.66418        13.47251         0.24144
   C       -3.75821        14.18379        -0.92387
   S       -3.43773        13.19532        -2.33131
   C       -4.05358        15.56407        -1.07658
   C       -4.15447        16.27088        -2.26061
   C       -4.43768        17.61799        -2.04101
   C       -4.55373        17.93601        -0.67650
   S       -4.32083        16.57509         0.33224
   C       -4.81841        19.32074        -0.55449
   C       -4.86772        19.88393        -1.84961
   C       -4.65383        18.82627        -2.82379
   C       -4.67590        18.92899        -4.18276
   C       -4.95634        20.13647        -4.85948
   N       -5.20482        21.09355        -5.43882
   C       -4.44599        17.81507        -5.01898
   N       -4.25842        16.91419        -5.70299
   C       -5.07513        21.25647        -1.84140
   C       -5.18992        21.76173        -0.55267
   S       -5.06308        20.47935         0.66304
   C       -5.42428        23.06154        -0.06158
   C       -5.32417        24.27203        -0.69066
   C       -5.68252        25.53940        -0.07669
   C       -6.44377        25.71689         1.05043
   C       -6.77406        26.97874         1.58734
   N       -7.07476        27.97162         2.07928
   C       -7.03429        24.68751         1.81258
   N       -7.56469        23.90997         2.47144
   C       -5.16240        26.60909        -0.91902
   C       -4.56697        26.02405        -2.07154
   C       -4.66941        24.55741        -1.99319
   O       -4.24492        23.76844        -2.81084
   C       -3.99792        26.77960        -3.05546
   C       -3.99512        28.18644        -2.92665
   C       -4.58010        28.78094        -1.77139
   C       -5.16426        27.97091        -0.77034
   C       -4.56452        30.18531        -1.64968
   C       -4.00086        30.96619        -2.62183
   C       -3.42700        30.37966        -3.75963
   C       -3.42462        29.01924        -3.90903
   H        0.75484        -2.35687         3.47759
   H        1.65362         1.92208         5.87813
   H        2.02323         0.68571         7.93285
   H        2.12935        -1.44749         9.15833
   H        1.69727        -3.57340         7.99173
   H        1.15408        -3.58208         5.58905
   H       -0.34262         1.43555        -0.07001
   H       -2.10638         6.38620         4.66607
   H       -1.50752         3.92419         4.97363
   H       -1.86795         7.81592        -1.92872
   H       -3.57441         8.25932        -3.33278
   H       -1.92251         9.74998        -7.67998
   H       -0.64804        10.78745        -7.01671
   H       -2.23664        11.46469        -7.36166
   H       -1.91468        10.19346         3.44854
   H       -5.10208        12.09459         6.64506
   H       -6.32304        12.59034         5.45581
   H       -4.99481        13.67574         5.86240
   H       -3.81287        13.92893         1.20300
   H       -4.01957        15.80899        -3.22205
   H       -5.13173        21.87792        -2.71575
   H       -5.69580        23.08217         0.98787
   H       -3.55663        26.30839        -3.92112
   H       -5.59347        28.45172         0.09424
   H       -5.00901        30.63263        -0.77270
   H       -3.99446        32.04102        -2.51939
   H       -2.98661        31.01094        -4.51688
   H       -2.98431        28.56133        -4.78267
*
