# ORCA input file
# SCF done       -187.939276338611          0.000994537661
! CAM-B3LYP def2-SVP def2/J RIJCOSX Grid4 TightSCF
%maxcore 5000
%tddft
    Mode sTDDFT
    Ethresh 5.0
    maxcore 5000
end

%pal
  nprocs 6
  end
* xyz 0 1
   C        3.10379         4.51829        -2.29354
   C        2.79364         5.76715        -2.77529
   C        3.04896         6.19433        -4.09113
   N        3.19285         6.58561        -5.16180
   C        2.22997         6.78284        -1.98394
   N        1.76444         7.64008        -1.37674
   C        3.94818         3.53933        -2.97383
   C        4.39943         2.58962        -2.01199
   C        5.23776         1.56821        -2.35064
   C        5.65831         1.43828        -3.69450
   C        5.19931         2.37580        -4.66330
   C        4.34062         3.43315        -4.27945
   C        5.61805         2.22922        -6.00077
   C        6.45147         1.20711        -6.36643
   C        6.90453         0.28554        -5.41146
   C        6.51704         0.39962        -4.10371
   C        3.80282         2.90933        -0.70103
   O        3.99029         2.35185         0.35785
   C        2.86694         4.03752        -0.96049
   C        1.94529         4.34903         0.00273
   C        0.72315         5.03486        -0.07007
   C       -0.08392         5.38654        -1.15485
   O        0.20219         5.11815        -2.45163
   C       -0.61215         5.86142        -3.34566
   C       -2.09099         5.81673        -2.93977
   C       -2.64096         4.39287        -2.96514
   O       -2.24628         6.39886        -1.64937
   C       -1.28782         5.99904        -0.77685
   C       -1.43178         6.13882         0.59413
   S       -0.06922         5.48225         1.43079
   C       -2.54994         6.68841         1.25358
   C       -2.73686         6.78786         2.62055
   O       -1.81104         6.37214         3.52265
   C       -2.35468         6.22984         4.82242
   C       -3.27270         7.40796         5.18236
   C       -2.51102         8.73068         5.19717
   O       -4.36797         7.46158         4.27362
   C       -3.97917         7.34496         2.98082
   C       -4.75608         7.68162         1.88316
   S       -3.93628         7.28244         0.39400
   C       -6.05963         8.24628         1.85742
   C       -6.69620         9.01117         2.82180
   O       -6.12580         9.38110         3.99998
   C       -7.09566         9.71547         4.97374
   C       -8.13742        10.68350         4.39845
   C       -7.48781        11.99544         3.96556
   O       -8.81548        10.06422         3.30810
   C       -8.00664         9.39812         2.46732
   C       -8.40167         8.92821         1.21322
   S       -7.10235         7.99912         0.49395
   C       -9.64168         8.97197         0.55404
   C      -10.65492         9.87941         0.72889
   C      -12.02004         9.71791         0.28013
   C      -12.58193         8.58162        -0.24801
   C      -13.93053         8.47702        -0.64348
   N      -15.01519         8.32532        -0.99001
   C      -11.91315         7.35717        -0.44953
   N      -11.45399         6.31991        -0.63311
   C      -12.73582        10.95566         0.57436
   C      -11.82632        11.87184         1.17420
   C      -10.49025        11.25015         1.25437
   O       -9.45569        11.80556         1.56372
   C      -12.21425        13.11886         1.56734
   C      -13.56121        13.51066         1.39062
   C      -14.47735        12.59973         0.79203
   C      -14.04210        11.31800         0.38207
   C      -15.81812        12.99931         0.62059
   C      -16.23664        14.23869         1.02216
   C      -15.33321        15.13563         1.61062
   C      -14.02409        14.77908         1.79089
   H        5.57585         0.86438        -1.60453
   H        4.00538         4.12783        -5.03396
   H        5.26896         2.94342        -6.73227
   H        6.76630         1.10382        -7.39418
   H        7.56165        -0.51520        -5.71656
   H        6.86285        -0.30724        -3.36349
   H        2.16738         3.92515         0.97841
   H       -0.46055         5.41769        -4.32998
   H       -0.27340         6.90604        -3.35520
   H       -2.67089         6.46059        -3.60779
   H       -2.02544         3.73307        -2.35664
   H       -2.65301         4.01973        -3.98514
   H       -3.65433         4.38822        -2.57207
   H       -1.50339         6.17656         5.50151
   H       -2.92792         5.29459         4.87847
   H       -3.73473         7.22336         6.15731
   H       -1.94940         8.85893         4.27437
   H       -1.81994         8.75223         6.03489
   H       -3.21821         9.55073         5.29151
   H       -6.55144        10.17797         5.79767
   H       -7.59266         8.80252         5.32901
   H       -8.92429        10.86896         5.13639
   H       -6.57120        11.80001         3.41310
   H       -7.25563        12.60053         4.83739
   H       -8.17192        12.53321         3.31550
   H       -9.78614         8.18227        -0.17361
   H      -11.50543        13.79963         2.01551
   H      -14.75834        10.65487        -0.07630
   H      -16.50974        12.30443         0.16700
   H      -17.26649        14.53458         0.88842
   H      -15.67936        16.11055         1.92041
   H      -13.32392        15.46650         2.24327
*
