# ORCA input file
# SCF done       -168.262400648582          0.000978348191
! CAM-B3LYP def2-SVP def2/J RIJCOSX Grid4 TightSCF
%maxcore 5000
%tddft
    Mode sTDDFT
    Ethresh 5.0
    maxcore 5000
end

%pal
  nprocs 6
  end
* xyz 0 1
   C        2.62961         2.66610        -0.73403
   C        2.96488         3.97817        -0.53592
   C        4.03900         4.62201        -1.18214
   N        4.88231         5.20224        -1.70224
   C        2.30012         4.82634         0.37221
   N        1.80894         5.54702         1.11862
   C        3.42108         1.69112        -1.47313
   C        3.01687         0.38214        -1.07721
   C        3.61122        -0.73654        -1.58609
   C        4.64576        -0.59494        -2.53847
   C        5.04263         0.71021        -2.95060
   C        4.41501         1.85137        -2.40057
   C        6.06973         0.83663        -3.90792
   C        6.67895        -0.27063        -4.43219
   C        6.28871        -1.55506        -4.02472
   C        5.29440        -1.71351        -3.09792
   C        1.90872         0.48665        -0.11145
   O        1.35081        -0.40316         0.48763
   C        1.56491         1.94052        -0.07050
   C        0.36311         2.31897         0.42600
   C       -0.34480         3.55731         0.26738
   C       -1.25091         3.97939         1.22500
   C       -1.92540         5.19796         1.14179
   C       -1.78504         6.06096         0.07085
   C       -0.92243         5.63607        -0.98194
   C       -0.20193         4.38773        -0.88039
   N        0.55107         4.10318        -1.93367
  Se        0.44812         5.41029        -3.09160
   N       -0.67309         6.30747        -2.09944
   C       -2.46421         7.34742         0.01439
   C       -2.84599         7.92620        -1.17977
   C       -3.45902         9.18010        -1.25680
   C       -3.70713         9.96268        -0.14693
   C       -3.34620         9.40589         1.11443
   C       -2.75051         8.08884         1.19776
   N       -2.48728         7.69399         2.43673
  Se       -2.97505         8.93278         3.56590
   N       -3.53855         9.98654         2.29231
   C       -4.28395        11.29588        -0.25327
   C       -3.95507        12.30097         0.63788
   C       -4.48889        13.58856         0.55834
   C       -5.42051        13.94674        -0.39828
   C       -5.74193        12.96961        -1.37969
   C       -5.18836        11.63849        -1.30113
   N       -5.60622        10.82815        -2.26729
  Se       -6.68119        11.70191        -3.33258
   N       -6.51602        13.18351        -2.43275
   C       -6.00065        15.26367        -0.41693
   C       -7.28660        15.55616        -0.72766
   C       -7.84879        16.88437        -0.93459
   C       -7.19653        18.08226        -0.81423
   C       -7.79678        19.33872        -1.04591
   N       -8.22272        20.39248        -1.20651
   C       -5.85030        18.25387        -0.42787
   N       -4.76645        18.48481        -0.12604
   C       -9.24356        16.71749        -1.32323
   C       -9.57127        15.33258        -1.27543
   C       -8.39388        14.56207        -0.84038
   O       -8.37058        13.38922        -0.53814
   C      -10.81896        14.87558        -1.58802
   C      -11.81315        15.79833        -1.98306
   C      -11.49303        17.18575        -2.03591
   C      -10.19505        17.63043        -1.69807
   C      -12.49282        18.09933        -2.42870
   C      -13.74851        17.66525        -2.75485
   C      -14.06258        16.29875        -2.70305
   C      -13.11576        15.38550        -2.32581
   H        3.29555        -1.71925        -1.26837
   H        4.72740         2.82799        -2.73601
   H        6.36882         1.82776        -4.21608
   H        7.46573        -0.16290        -5.16378
   H        6.77965        -2.41809        -4.44902
   H        4.98983        -2.70017        -2.78066
   H       -0.16155         1.54906         0.98511
   H       -1.40422         3.36229         2.09818
   H       -2.58052         5.47946         1.94960
   H       -2.66287         7.39154        -2.09720
   H       -3.72879         9.55893        -2.22893
   H       -3.25693        12.08296         1.42932
   H       -4.19870        14.31784         1.30066
   H       -5.32524        16.06661        -0.14924
   H      -11.04320        13.82027        -1.53905
   H       -9.98638        18.68726        -1.74610
   H      -12.24579        19.15016        -2.46647
   H      -14.50738        18.37240        -3.05455
   H      -15.05885        15.97373        -2.96338
   H      -13.35246        14.33235        -2.28349
*
