# ORCA input file
# SCF done       -243.943591262808          0.000678231413
! CAM-B3LYP def2-SVP def2/J RIJCOSX Grid4 TightSCF
%maxcore 5000
%tddft
    Mode sTDDFT
    Ethresh 5.0
    maxcore 5000
end

%pal
  nprocs 6
  end
* xyz 0 1
   C        3.16003         0.08999         0.46885
   O        2.58029        -1.05542         0.80020
   C        3.30727        -2.08866         0.27598
   C        4.39068        -1.55892        -0.41254
   C        4.27989        -0.14078        -0.27771
   C        5.21632         0.86239        -0.84356
   F        4.82675         2.11819        -0.56055
   F        6.46537         0.73879        -0.36557
   F        5.31572         0.79009        -2.18036
   O        5.41650        -2.08716        -1.10312
   C        5.52944        -3.48490        -1.22653
   C        2.84354        -3.42291         0.53351
   C        1.77322        -3.68090         1.30771
   C        1.24407        -4.98332         1.64076
   C        1.70203        -6.17039         1.04913
   C        1.15704        -7.37268         1.42837
   C        0.15382        -7.42780         2.40960
   C       -0.31366        -6.26266         2.99942
   C        0.23075        -5.05753         2.60671
   C       -0.23156        -8.80907         2.59635
   C        0.52458        -9.61170         1.72373
   C        1.51763        -8.76682         0.95580
   C        2.97064        -9.03398         1.41503
   C        3.49688       -10.44377         1.18099
   C        1.36388        -8.92339        -0.56376
   C       -0.02462        -8.52252        -1.04887
   C        0.28462       -10.96312         1.65154
   C       -0.66417       -11.55348         2.50172
   C       -1.38790       -10.73968         3.38191
   C       -1.19004        -9.37532         3.42393
   C       -0.85767       -12.98529         2.43912
   C       -1.43730       -13.73241         3.39676
   C       -1.61140       -15.15023         3.34914
   C       -1.38510       -16.03746         2.33486
   C       -1.67761       -17.38084         2.67099
   C       -1.53007       -18.53472         1.87275
   C       -1.11687       -18.48401         0.48490
   C       -0.31968       -19.36840        -0.18368
   C       -0.18685       -19.05848        -1.55464
   C       -0.87998       -17.95424        -1.95512
   S       -1.71533       -17.26149        -0.60588
   C       -0.97936       -17.35619        -3.31047
  Cl        0.77510       -20.00952        -2.62070
   C       -1.83180       -19.75094         2.47731
   C       -2.27704       -19.86867         3.81655
   C       -2.41600       -18.71739         4.61731
   C       -2.12745       -17.50173         4.01096
   S       -2.20498       -15.95060         4.79015
   C       -2.82366       -18.81881         6.00407
   C       -2.39567       -19.71835         6.93769
   C       -3.00410       -19.52774         8.19740
   C       -3.89863       -18.49812         8.24034
   S       -3.99261       -17.72649         6.69315
   C       -4.71978       -18.02661         9.38358
  Cl       -2.63409       -20.52164         9.55467
   C       -2.59427       -21.20421         4.15860
   C       -2.38990       -22.09404         3.14136
   S       -1.78741       -21.30877         1.69588
   C       -2.60199       -23.50146         3.16979
   C       -2.99176       -24.26406         4.25501
   C       -3.09952       -25.61651         3.92855
   C       -2.79088       -25.88237         2.58543
   S       -2.36599       -24.46944         1.72663
   C       -2.93247       -27.27721         2.35669
   C       -3.32616       -27.88879         3.55944
   C       -3.44443       -26.86756         4.58657
   C       -3.80469       -27.04189         5.89061
   C       -3.89215       -25.96288         6.79502
   N       -3.96605       -25.08695         7.53133
   C       -4.11821       -28.31063         6.42144
   N       -4.37831       -29.33810         6.85870
   C       -3.49389       -29.26688         3.43307
   C       -3.22914       -29.70077         2.14627
   S       -2.76951       -28.39185         1.07806
   C       -3.34043       -31.05592         1.71237
   O       -3.78200       -31.95264         2.61265
   C       -3.84815       -33.17108         2.02807
   C       -3.43832       -33.06751         0.70936
   C       -3.10400       -31.69768         0.50430
   C       -2.56353       -31.08766        -0.73631
   F       -3.42447       -30.20715        -1.29918
   F       -1.42554       -30.39868        -0.52004
   F       -2.27979       -31.98005        -1.68727
   O       -3.35008       -34.08443        -0.18461
   C       -4.39310       -34.13040        -1.14795
   C       -4.29464       -34.28494         2.82184
   C       -4.30713       -35.54922         2.40775
   H        2.71245         1.00519         0.80194
   H        6.43649        -3.64909        -1.80617
   H        4.67521        -3.90613        -1.76425
   H        5.63223        -3.96336        -0.24834
   H        3.40221        -4.22550         0.08407
   H        1.25699        -2.84175         1.75410
   H        2.46836        -6.13663         0.28966
   H       -1.08923        -6.29627         3.74982
   H       -0.12368        -4.14143         3.05713
   H        3.02830        -8.81197         2.48402
   H        3.61775        -8.32240         0.89654
   H        2.93026       -11.17011         1.75682
   H        4.53537       -10.49691         1.50131
   H        3.45575       -10.71383         0.12898
   H        1.54850        -9.96324        -0.83643
   H        2.11585        -8.30686        -1.06123
   H       -0.78715        -9.13362        -0.57088
   H       -0.09980        -8.65704        -2.12554
   H       -0.22764        -7.47946        -0.81679
   H        0.81854       -11.58883         0.95131
   H       -2.13899       -11.18210         4.01766
   H       -1.77607        -8.75780         4.08810
   H       -0.45782       -13.47447         1.56058
   H       -1.78728       -13.26612         4.30717
   H       -1.01441       -15.73804         1.37300
   H        0.18901       -20.19338         0.27898
   H       -0.28794       -17.85822        -3.98267
   H       -0.74222       -16.29373        -3.28143
   H       -1.99055       -17.46334        -3.70354
   H       -1.64324       -20.46321         6.75513
   H       -5.78165       -18.13248         9.16307
   H       -4.52321       -16.97505         9.58879
   H       -4.48384       -18.61166        10.26886
   H       -2.99163       -21.48736         5.11477
   H       -3.18125       -23.85106         5.22802
   H       -3.79022       -29.93747         4.21837
   H       -4.14831       -34.96079        -1.80580
   H       -4.44870       -33.20930        -1.73308
   H       -5.35828       -34.31058        -0.66301
   H       -4.62662       -34.01370         3.81465
   H       -3.95937       -35.82418         1.42783
   H       -4.65912       -36.33978         3.04613
*
