# ORCA input file
# SCF done       -181.773303579471          0.002360310158
! CAM-B3LYP def2-SVP def2/J RIJCOSX Grid4 TightSCF
%maxcore 5000
%tddft
    Mode sTDDFT
    Ethresh 5.0
    maxcore 5000
end

%pal
  nprocs 6
  end
* xyz 0 1
   C        2.30532        12.55783        -5.50780
   C        2.54285        11.72058        -4.47388
   C        3.77809        11.07610        -4.26303
   C        4.89472        11.28787        -5.19171
   C        4.84733        12.07832        -6.28607
   S        3.45159        12.97168        -6.74452
   C        5.95814        10.49328        -4.67991
   C        5.54795         9.83164        -3.52337
   C        6.59612         9.07378        -2.95204
   C        7.73694         9.16622        -3.68461
   S        7.59835        10.17285        -5.08647
   C        4.16758        10.18052        -3.26034
   C        3.34007         9.71339        -2.21256
   C        3.62243         8.66052        -1.39925
   C        2.77044         8.21555        -0.36621
   S        1.36720         9.16426         0.02985
   C        0.78796         8.02136         1.19056
   C        1.62814         6.90008         1.22137
   C        2.80346         7.04033         0.40662
   C        3.77295         5.99304         0.42870
   C        5.12174         6.07517        -0.15435
   O        5.80285         7.06825        -0.27491
   O        5.60612         4.86778        -0.50468
   C        3.48630         4.83910         1.13272
   C        2.28508         4.65948         1.81385
   C        1.35028         5.66678         1.86581
   O        0.15343         5.50092         2.46660
   C       -0.39379         8.33052         1.90701
   S       -1.62993         9.22881         1.07991
   C       -2.71487         9.17829         2.42908
   C       -2.14622         8.44080         3.47522
   C       -0.79065         8.05208         3.21967
   C       -0.03413         7.47488         4.27457
   C        1.43214         7.31409         4.25047
   O        2.03116         6.38883         4.74427
   O        2.07022         8.35133         3.68634
   C       -0.67916         7.11223         5.43532
   C       -2.04751         7.32766         5.61213
   C       -2.78505         7.99575         4.66284
   O       -4.11279         8.20866         4.80267
   C       -3.95553         9.85504         2.32360
   S       -4.72578         9.88820         0.76870
   C       -6.11069        10.75978         1.35005
   C       -5.98472        10.98189         2.72783
   C       -4.72093        10.55513         3.25933
   C       -4.38462        10.89611         4.59769
   C       -3.02132        10.82195         5.15952
   O       -2.76509        10.53058         6.30315
   O       -2.06993        11.19441         4.29147
   C       -5.35525        11.42583         5.41466
   C       -6.64952        11.66907         4.94666
   C       -6.97080        11.47160         3.62546
   O       -8.22539        11.68014         3.16038
   C       -7.06207        11.20508         0.38112
   C       -7.18316        10.56808        -0.83141
   C       -7.96825        10.99619        -1.90241
   C       -8.76061        12.22952        -1.80562
   C       -8.78945        13.01961        -0.71117
   S       -7.92022        12.70194         0.73031
   C       -9.40430        12.35509        -3.06195
   C       -9.04309        11.28803        -3.89275
   C       -9.64906        11.40122        -5.16690
   C      -10.43273        12.50540        -5.26137
   S      -10.46889        13.47008        -3.82325
   C       -8.14634        10.42618        -3.17134
   C       -7.51495         9.21940        -3.61919
   C       -7.70580         8.60320        -4.78759
   H        1.35719        13.04744        -5.65163
   H        1.73952        11.54514        -3.77200
   H        5.68532        12.19944        -6.95371
   H        6.53520         8.50589        -2.04154
   H        8.68202         8.69810        -3.48976
   H        2.39146        10.22214        -2.08404
   H        4.52979         8.10932        -1.55762
   H        6.51713         4.96515        -0.82377
   H        4.21763         4.04722         1.15643
   H        2.09026         3.72396         2.31803
   H        0.12829         4.64415         2.91262
   H        3.02921         8.20491         3.71295
   H       -0.10368         6.66018         6.22852
   H       -2.52661         6.99712         6.52247
   H       -4.39646         7.92141         5.68037
   H       -1.19758        11.15252         4.71468
   H       -5.10218        11.66482         6.43616
   H       -7.40288        12.03749         5.62936
   H       -8.78603        12.02954         3.86508
   H       -6.60995         9.65769        -0.95039
   H       -9.37963        13.92154        -0.66358
   H       -9.52237        10.71546        -5.98398
   H      -11.00637        12.83215        -6.10693
   H       -6.81761         8.78250        -2.91498
   H       -8.38767         8.97011        -5.53246
   H       -7.17580         7.69888        -5.03244
*
