# ORCA input file
# SCF done       -151.558141255649          0.000497066032
! CAM-B3LYP def2-SVP def2/J RIJCOSX Grid4 TightSCF
%maxcore 5000
%tddft
    Mode sTDDFT
    Ethresh 5.0
    maxcore 5000
end

%pal
  nprocs 6
  end
* xyz 0 1
   C       -6.02199        11.31359        -5.91991
   S       -5.25727         9.73690        -5.85381
   C       -6.26785         9.28032        -7.16526
   C       -7.08681        10.34683        -7.53562
   N       -6.92695        11.46935        -6.82240
   C       -7.97646         9.96795        -8.67646
   C       -7.55701         8.54466        -8.90636
   C       -6.55296         8.17726        -8.00231
   S       -6.03489         6.55954        -8.22088
   C       -7.17879         6.35562        -9.54436
   C       -7.90730         7.52091        -9.77163
   C       -7.23008         5.10723       -10.19104
   C       -8.07758         4.78819       -11.22100
   C       -8.16574         3.56186       -11.88993
   C       -7.44089         2.39741       -11.71547
   C       -7.63991         1.21327       -12.45990
   C       -6.80919         0.18059       -12.12343
   C       -5.90553         0.49568       -11.09503
   S       -6.14370         2.14196       -10.56466
   C       -4.93258        -0.31255       -10.51783
   C       -4.62371        -1.65094       -10.81174
   C       -3.60634        -2.15935       -10.04995
   C       -3.06696        -1.24544        -9.12484
   S       -3.89182         0.29097        -9.24849
   C       -2.04052        -1.49493        -8.23134
   C       -1.49317        -0.60339        -7.32238
   S       -1.96310         1.07494        -7.11093
   C       -0.79573         1.40174        -5.81863
   C       -0.06514         0.20834        -5.56721
   C       -0.47051        -0.85998        -6.40250
   O        0.21218        -1.98532        -6.14315
   C        1.06637        -1.65809        -5.13850
   N        1.89631        -2.65565        -4.59852
   O        2.61332        -2.31940        -3.66693
   O        1.83880        -3.77364        -5.06680
   C        0.94671        -0.34463        -4.74980
   C       -0.80179         2.69116        -5.32081
   C       -0.01490         3.27080        -4.33252
   C       -0.02627         4.61859        -3.92686
   C        0.90137         4.93164        -2.96190
   C        1.68183         3.83722        -2.56527
   S        1.18471         2.40315        -3.42513
   C        2.77160         3.70028        -1.71101
   C        3.54208         4.62588        -0.98789
   C        4.65179         4.07798        -0.40227
   C        4.82366         2.69475        -0.65683
   S        3.45309         2.09796        -1.55906
   C        5.85852         1.87738        -0.27148
   C        6.09368         0.55892        -0.72107
   S        7.03199        -0.51787         0.30473
   C        6.93311        -1.81163        -0.82265
   C        6.23931        -1.44452        -1.93490
   C        5.75687        -0.10965        -1.89155
   S        5.02335         0.44922        -3.36617
   C        5.19519        -1.04295        -4.26777
   S        4.69580        -1.15166        -5.81406
   S        5.92809        -2.35984        -3.38849
   H       -5.72869        12.08050        -5.23266
   H       -7.80380        10.59675        -9.55173
   H       -9.03222        10.05043        -8.41173
   H       -8.65536         7.60156       -10.53853
   H       -6.54072         4.36477        -9.81849
   H       -8.76282         5.55192       -11.56340
   H       -8.91583         3.50302       -12.66957
   H       -8.39353         1.15493       -13.22564
   H       -6.82870        -0.78708       -12.59137
   H       -5.14953        -2.20801       -11.56587
   H       -3.23115        -3.16409       -10.13024
   H       -1.61162        -2.48852        -8.23212
   H        1.53627         0.09637        -3.97676
   H       -1.52034         3.35586        -5.78585
   H       -0.70248         5.33168        -4.36495
   H        1.03760         5.91520        -2.54904
   H        3.28246         5.66847        -0.93647
   H        5.37454         4.63555         0.16683
   H        6.55131         2.25815         0.46685
   H        7.38850        -2.75545        -0.60630
*
