# ORCA input file
# SCF done       -176.786333583724          0.000931793625
! CAM-B3LYP def2-SVP def2/J RIJCOSX Grid4 TightSCF
%maxcore 5000
%tddft
    Mode sTDDFT
    Ethresh 5.0
    maxcore 5000
end

%pal
  nprocs 6
  end
* xyz 0 1
   C       -6.67729         1.94161        -7.02148
   C       -6.10396         0.93731        -6.26821
   C       -4.90776         0.28172        -6.59288
   N       -3.95085        -0.32249        -6.80340
   C       -6.60283         0.45452        -5.04116
   N       -6.90551         0.04519        -4.01069
   C       -6.06139         2.57886        -8.18361
   C       -6.89493         3.64168        -8.60908
   C       -6.57703         4.44895        -9.67171
   C       -5.38011         4.19251       -10.35221
   C       -4.55717         3.12759        -9.92185
   C       -4.87714         2.31295        -8.84120
   S       -3.12921         2.98583       -10.90403
   C       -3.65305         4.34167       -11.86662
   C       -4.83369         4.87458       -11.47419
  Br       -2.59121         4.92603       -13.29944
   C       -8.09596         3.69279        -7.74199
   O       -9.01429         4.48536        -7.83010
   C       -7.93798         2.58366        -6.78778
   C       -8.90516         2.16556        -5.88868
   C      -10.12756         2.77425        -5.65710
   C      -11.06028         2.22097        -4.78793
   C      -12.32258         2.72773        -4.42669
   C      -13.01346         1.93284        -3.54714
   C      -12.32396         0.76407        -3.19012
   S      -10.77024         0.69911        -3.98109
   C      -12.70505        -0.28386        -2.35347
   C      -13.87162        -0.45243        -1.58894
   C      -13.89066        -1.62426        -0.87968
   C      -12.74954        -2.43170        -1.06789
   S      -11.64198        -1.64900        -2.16920
   C      -12.49966        -3.64656        -0.45038
   C      -11.40728        -4.48005        -0.65688
   S      -11.14027        -5.88671         0.38908
   C       -9.65771        -6.40074        -0.40878
   C       -9.43225        -5.49333        -1.44306
   C      -10.36097        -4.47402        -1.58194
   O      -10.01179        -3.74067        -2.67902
   C       -8.88502        -4.30252        -3.19667
   O       -8.32187        -3.92793        -4.16776
   O       -8.50920        -5.37264        -2.44253
   C       -8.90045        -7.50626        -0.02980
   C       -7.70072        -7.79539        -0.64967
   C       -6.88138        -8.87534        -0.36366
   C       -5.66117        -9.07452        -0.99518
   C       -4.76377       -10.14466        -0.82049
   C       -3.63027       -10.05483        -1.58350
   C       -3.58026        -8.90127        -2.38649
   S       -5.02008        -7.93847        -2.16137
   C       -2.57054        -8.49056        -3.24762
   C       -1.36579        -9.15662        -3.55488
   C       -0.57290        -8.47820        -4.43171
   C       -1.10750        -7.23688        -4.85739
   S       -2.67139        -6.97334        -4.10758
   C       -0.49987        -6.35580        -5.71560
   C       -0.97045        -5.10568        -6.14400
   S       -2.49434        -4.35484        -5.67385
   C       -2.23157        -2.94180        -6.59982
   C       -1.02384        -3.00917        -7.26052
   C       -0.32548        -4.22478        -7.00097
   O        0.84838        -4.25789        -7.65863
   C        0.91050        -3.07588        -8.33717
   N        2.06069        -2.83699        -9.12687
   O        2.09850        -1.77726        -9.72232
   O        2.91990        -3.69163        -9.15123
   C       -0.18323        -2.27636        -8.14219
   H       -7.22901         5.25416        -9.97213
   H       -4.21676         1.51337        -8.54926
   H       -5.30234         5.71378       -11.95496
   H       -8.70144         1.26155        -5.32640
   H      -10.37235         3.69626        -6.16351
   H      -12.68912         3.65911        -4.82008
   H      -13.99162         2.16227        -3.16365
   H      -14.65848         0.27989        -1.57029
   H      -14.69528        -1.92883        -0.23390
   H      -13.21655        -3.97580         0.28972
   H       -9.26938        -8.12624         0.77371
   H       -7.36470        -7.11905        -1.42511
   H       -7.18828        -9.60072         0.37769
   H       -4.97443       -10.95260        -0.14225
   H       -2.83960       -10.78327        -1.57688
   H       -1.11687       -10.11099        -3.12751
   H        0.38199        -8.82540        -4.78423
   H        0.46636        -6.63975        -6.11364
   H       -2.95214        -2.14476        -6.60336
   H       -0.34739        -1.31023        -8.57208
*
