# ORCA input file
# SCF done       -173.093174111965          0.000642015154
! CAM-B3LYP def2-SVP def2/J RIJCOSX Grid4 TightSCF
%maxcore 5000
%tddft
    Mode sTDDFT
    Ethresh 5.0
    maxcore 5000
end

%pal
  nprocs 6
  end
* xyz 0 1
   C       -2.15260        -0.76935        -2.47718
   C       -1.99248        -0.97701        -3.81887
   C       -0.84956        -0.58093        -4.54722
   N        0.05382        -0.27797        -5.18633
   C       -2.91926        -1.64655        -4.64843
   N       -3.61388        -2.19513        -5.37867
   C       -1.17476        -0.17321        -1.58046
   C       -1.63625        -0.30739        -0.24780
   C       -0.92221         0.15120         0.83345
   C        0.30500         0.77412         0.58808
   C        0.75571         0.91086        -0.74828
   C        0.03500         0.44653        -1.84045
   S        2.29328         1.71552        -0.82427
   C        2.31281         1.85185         0.91421
   C        1.22352         1.32438         1.52273
  Br        3.76639         2.67938         1.76078
   C       -2.93996        -0.99798        -0.23517
   O       -3.57894        -1.30009         0.74590
   C       -3.29841        -1.18629        -1.67241
   C       -4.53011        -1.46921        -2.15251
   C       -5.69150        -1.88228        -1.38354
   C       -5.66136        -2.75741        -0.36583
   C       -6.92020        -1.34293        -1.83684
   C       -7.95953        -0.86032        -2.22529
   C       -9.16956        -0.31366        -2.65877
   C      -10.08153         0.16081        -1.78651
   C      -11.34352         0.75545        -2.08529
   S      -12.18314         1.51636        -0.76861
   C      -13.49943         1.99076        -1.78392
   C      -13.29835         1.55568        -3.07825
   C      -12.08081         0.86473        -3.25605
   S      -11.55921         0.09200        -4.74897
   C      -12.74512         0.40805        -6.02133
   O      -12.61810        -0.20493        -7.04401
   C      -13.83199         1.45167        -5.89833
   O      -14.37298         1.86878        -6.88377
   S      -14.43764         2.02555        -4.34078
   C      -14.63138         2.71144        -1.23126
   C      -14.39909         3.73468        -0.26251
   C      -15.46297         4.37340         0.33173
   C      -16.78287         4.03063        -0.00328
   C      -17.01330         3.01169        -0.96906
   C      -15.91915         2.36427        -1.56697
   N      -18.27101         2.65117        -1.30073
   C      -19.24671         3.27556        -0.70179
   C      -19.01689         4.29314         0.25204
   N      -17.81403         4.66501         0.59431
   C      -13.04363         4.16738         0.03056
   C      -12.52745         4.46909         1.23755
   C      -13.04660         4.28156         2.58471
   C      -13.88706         3.28501         2.99525
   C      -14.30004         3.11080         4.33366
   N      -14.66561         2.94042         5.40758
   C      -14.35655         2.25799         2.14953
   N      -14.70697         1.36337         1.52219
   C      -12.32756         5.20752         3.44866
   C      -11.23860         5.76131         2.72520
   C      -11.26026         5.25384         1.34144
   O      -10.46278         5.45050         0.45660
   C      -10.35020         6.64319         3.29318
   C      -10.55105         7.00379         4.62917
   C      -11.64990         6.45681         5.33782
   C      -12.54359         5.55914         4.76834
   S      -11.71576         7.04739         6.96906
   C      -10.28481         8.00344         6.68601
   C       -9.78297         7.88928         5.43276
  Br       -9.59116         9.06149         8.06871
   H       -1.29927         0.03030         1.83691
   H        0.41650         0.57867        -2.83913
   H        1.07270         1.32271         2.58676
   H       -4.72410        -1.32184        -3.20892
   H       -4.74897        -3.22550        -0.04698
   H       -6.56819        -3.04318         0.13916
   H       -9.32086        -0.27886        -3.72770
   H       -9.84625         0.12857        -0.72996
   H      -15.30830         5.16900         1.04539
   H      -16.12430         1.56729        -2.26325
   H      -20.25128         2.97878        -0.97099
   H      -19.83845         4.80386         0.73572
   H      -12.40152         4.36724        -0.82185
   H       -9.52616         7.04336         2.72367
   H      -13.36987         5.17249         5.34180
   H       -8.90750         8.40836         5.08780
*
