# ORCA input file
# SCF done       -181.103151825389          0.000397487126
! CAM-B3LYP def2-SVP def2/J RIJCOSX Grid4 TightSCF
%maxcore 5000
%tddft
    Mode sTDDFT
    Ethresh 5.0
    maxcore 5000
end

%pal
  nprocs 6
  end
* xyz 0 1
   C      -10.83786        -0.35765        -1.63132
   C      -11.69739         0.63525        -2.03414
   C      -13.05700         0.42042        -2.34368
   N      -14.16833         0.31349        -2.61209
   C      -11.39221         2.00379        -2.15748
   N      -11.25215         3.13990        -2.27284
   C      -11.20233        -1.75653        -1.43101
   C      -10.11305        -2.42883        -0.82445
   C      -10.15387        -3.76100        -0.49669
   C      -11.32135        -4.47183        -0.79674
   C      -12.40111        -3.79502        -1.41132
   C      -12.36376        -2.44361        -1.73232
   S      -13.74292        -4.86164        -1.69882
   C      -12.84744        -6.18284        -0.99742
   C      -11.60726        -5.84574        -0.57029
  Br      -13.63237        -7.88310        -0.89737
   C       -9.00413        -1.47326        -0.61272
   O       -7.99971        -1.66765         0.03343
   C       -9.44282        -0.21581        -1.26915
   C       -8.68053         0.90079        -1.46231
   C       -7.27513         1.01565        -1.27435
   C       -6.67864         2.24449        -1.04800
   O       -5.31955         2.41567        -1.03475
   C       -4.58597         1.26442        -1.11611
   C       -5.20526        -0.00707        -1.29258
   C       -4.31220        -1.02655        -1.31992
   S       -2.69939        -0.44713        -1.13590
   C       -3.23585         1.18564        -1.01652
   O       -6.55066        -0.13416        -1.45013
   C       -7.41435         3.44580        -0.84060
   C       -8.66417         3.47570        -0.30840
   C       -9.58739         4.55956        -0.28092
   C       -9.46290         5.78759        -0.95022
   O       -8.31738         5.98246        -1.62873
   C       -8.26601         6.83144        -2.76473
   C      -10.47960         6.78725        -0.86764
   O      -10.19501         8.04052        -1.37605
   C       -9.79487         8.97635        -0.39000
   C      -11.71683         6.57492        -0.26580
   C      -11.87358         5.32290         0.38380
   C      -10.81828         4.35091         0.39357
   N      -11.25839         3.30837         1.06962
   O      -12.49984         3.60995         1.45394
   N      -12.88742         4.81771         1.05235
   C      -12.78915         7.51838        -0.25198
   S      -14.06251         7.34478         0.93065
   C      -14.92161         8.73580         0.32144
   C      -14.24919         9.26628        -0.76465
   C      -13.05078         8.59430        -1.08492
   S      -12.20394         9.17464        -2.48672
   C      -13.35489        10.44233        -2.88464
   S      -13.14624        11.41543        -4.17115
   S      -14.70726        10.60354        -1.77791
   C      -16.12788         9.21798         0.88702
   C      -16.75840         8.63325         1.93216
   C      -17.95736         9.13739         2.50080
   S      -18.76382         8.32501         3.82392
   C      -20.02785         9.47591         3.93061
   C      -19.86023        10.46448         2.99062
   C      -18.69145        10.26307         2.19039
   O      -18.55537        11.25473         1.28453
   C      -19.61705        12.08066         1.49659
   N      -19.72329        13.23177         0.67351
   O      -20.67948        13.95368         0.87765
   O      -18.86390        13.41061        -0.15985
   C      -20.44299        11.66857         2.50446
   H       -9.31055        -4.24245        -0.02707
   H      -13.21292        -1.97440        -2.20009
   H      -10.92141        -6.53598        -0.11404
   H       -9.16112         1.78821        -1.85085
   H       -4.51225        -2.07078        -1.43482
   H       -2.53620         1.98370        -0.88226
   H       -6.90048         4.35700        -1.10266
   H       -9.04816         2.58513         0.17204
   H       -8.01223         7.85658        -2.48872
   H       -9.20735         6.82664        -3.31397
   H       -7.47294         6.42147        -3.39144
   H       -9.66288         9.92158        -0.91286
   H       -8.85064         8.67398         0.07391
   H      -10.55429         9.09143         0.38927
   H      -16.53995        10.10938         0.43309
   H      -16.34965         7.73490         2.37386
   H      -20.80199         9.36155         4.66077
   H      -21.33047        12.16612         2.83626
*
