# ORCA input file
# SCF done       -171.413240685823          0.000293132451
! CAM-B3LYP def2-SVP def2/J RIJCOSX Grid4 TightSCF
%maxcore 5000
%tddft
    Mode sTDDFT
    Ethresh 5.0
    maxcore 5000
end

%pal
  nprocs 6
  end
* xyz 0 1
   C       -2.58498        -2.69605         1.61822
   C       -3.51892        -3.50700         2.23672
   C       -3.21657        -4.51486         3.16309
   N       -3.06694        -5.36323         3.92748
   C       -4.91383        -3.45737         2.04758
   N       -6.06078        -3.49680         1.96494
   C       -1.14108        -2.76333         1.84212
   C       -0.51505        -1.76884         1.05229
   C        0.84370        -1.58430         1.03789
   C        1.62607        -2.42393         1.84142
   C        0.99210        -3.41217         2.62633
   C       -0.38643        -3.59745         2.64185
   S        2.14498        -4.34041         3.53971
   C        3.44557        -3.39917         2.86012
   C        3.03988        -2.43956         1.99605
  Br        5.21736        -3.77390         3.35451
   C       -1.55398        -1.03162         0.29280
   O       -1.36418        -0.10971        -0.47843
   C       -2.82968        -1.65512         0.66784
   C       -4.07056        -1.30250         0.15368
   C       -4.34375        -0.30641        -0.76207
   C       -5.64624        -0.09190        -1.21345
   C       -6.12393         0.85905        -2.12599
   C       -7.47977         0.78436        -2.36021
   C       -8.11283        -0.23075        -1.63870
   S       -6.96220        -1.09062        -0.64875
   C       -9.45249        -0.63435        -1.60699
   C      -10.58238        -0.14434        -2.26456
   C      -11.73703        -0.83463        -1.96325
   C      -11.56391        -1.88397        -1.05128
   S       -9.88017        -1.98924        -0.59986
   C      -12.54576        -2.77719        -0.62166
   C      -12.45491        -3.79739         0.30060
   S      -13.79232        -4.95999         0.38252
   C      -13.02729        -5.98225         1.58500
   C      -11.80758        -5.37782         1.97403
   C      -11.49665        -4.19115         1.26633
   N      -10.35606        -3.72111         1.81660
   N       -9.92355        -4.50843         2.80031
   C      -10.76558        -5.50673         2.91971
   C      -13.59070        -7.17514         1.99648
   C      -12.90393        -8.05971         2.81778
   C      -13.35944        -9.26396         3.30807
   C      -12.55340       -10.08181         4.10057
   C      -12.87297       -11.30957         4.69750
   C      -11.85005       -11.86215         5.42972
   C      -10.67850       -11.09140         5.43180
   S      -10.90449        -9.64212         4.48628
   C       -9.46062       -11.34636         6.05606
   C       -9.11303       -12.43137         6.88264
   C       -7.82992       -12.37855         7.34608
   C       -7.09776       -11.25240         6.90033
   S       -8.10926       -10.25474         5.87270
   C       -5.79095       -10.96702         7.21203
   C       -5.01544        -9.88618         6.76981
   S       -5.53601        -8.62242         5.65608
   C       -4.02911        -7.81158         5.66679
   C       -3.13472        -8.45951         6.49114
   C       -3.69478        -9.61842         7.10441
   O       -2.79620       -10.22615         7.90117
   C       -1.66530        -9.46920         7.80572
   N       -0.53920        -9.88226         8.55709
   O        0.46024        -9.19663         8.45693
   O       -0.64703       -10.87759         9.24069
   C       -1.79899        -8.39072         6.97335
   H        1.29413        -0.81897         0.42543
   H       -0.82346        -4.36675         3.25652
   H        3.70827        -1.76959         1.48667
   H       -4.92015        -1.87764         0.50123
   H       -3.54850         0.31560        -1.14443
   H       -5.46950         1.57486        -2.59082
   H       -8.01338         1.43422        -3.03099
   H      -10.53797         0.69162        -2.93894
   H      -12.70148        -0.59941        -2.37799
   H      -13.50157        -2.68249        -1.12288
   H       -9.81258        -2.90842         1.57352
   H      -10.60161        -6.24701         3.67572
   H      -14.57695        -7.43148         1.63577
   H      -11.89348        -7.78761         3.08535
   H      -14.36377        -9.60126         3.09206
   H      -13.84272       -11.76051         4.58119
   H      -11.92235       -12.79818         5.95367
   H       -9.80982       -13.21519         7.11877
   H       -7.38515       -13.11506         7.99130
   H       -5.27973       -11.65455         7.87421
   H       -3.87535        -6.92885         5.07400
   H       -1.04536        -7.66479         6.74933
*
