# ORCA input file
# SCF done       -176.949960073278          0.000825681207
! CAM-B3LYP def2-SVP def2/J RIJCOSX Grid4 TightSCF
%maxcore 5000
%tddft
    Mode sTDDFT
    Ethresh 5.0
    maxcore 5000
end

%pal
  nprocs 6
  end
* xyz 0 1
   C      -20.43222        -8.40080        -3.15038
   C      -19.48100        -9.07852        -2.41775
   C      -19.60820       -10.41807        -2.00433
   N      -19.64315       -11.50534        -1.63219
   C      -18.25048        -8.55738        -1.97480
   N      -17.22591        -8.22667        -1.57010
   C      -21.70085        -8.97228        -3.60325
   C      -22.40653        -7.98418        -4.33105
   C      -23.64089        -8.21092        -4.88577
   C      -24.21068        -9.47807        -4.71397
   C      -23.49842       -10.45907        -3.98779
   C      -22.24697       -10.22842        -3.42672
   S      -24.38287       -11.95313        -3.89493
   C      -25.68117       -11.24519        -4.81887
   C      -25.46528        -9.95887        -5.18083
  Br      -27.19883       -12.27314        -5.22116
   C      -21.60347        -6.74190        -4.36625
   O      -21.91852        -5.70203        -4.91434
   C      -20.37622        -7.04071        -3.60841
   C      -19.35653        -6.13145        -3.37590
   C      -19.33484        -4.82450        -3.83579
   C      -18.29965        -3.94374        -3.55374
   C      -18.18866        -2.60455        -3.97141
   C      -17.05623        -1.97294        -3.52622
   C      -16.23162        -2.79123        -2.73881
   S      -16.91864        -4.38735        -2.57827
   C      -15.02605        -2.46991        -2.11618
   C      -14.33454        -1.24767        -2.11708
   C      -13.17994        -1.27263        -1.37948
   C      -12.91617        -2.51279        -0.76925
   S      -14.17550        -3.65807        -1.16602
   C      -11.83909        -2.81733         0.04742
   C      -11.58695        -4.03254         0.66066
   S      -12.56788        -5.48307         0.51115
   C      -11.56464        -6.45806         1.59241
   C      -10.48208        -5.65423         2.04711
   C      -10.52113        -4.34451         1.51587
   O       -9.47991        -3.60940         1.92624
   C       -8.75558        -4.43460         2.72813
   N       -7.56822        -3.95045         3.30217
   O       -6.96841        -4.72347         4.03874
   O       -7.20644        -2.82644         3.02882
   C       -9.31080        -5.68896         2.83526
   C      -11.97300        -7.76317         1.77940
   C      -11.47288        -8.74316         2.63280
   C      -11.91455       -10.07771         2.70844
   C      -11.26050       -10.83696         3.64852
   C      -10.28805       -10.12057         4.35884
   S      -10.22296        -8.46887         3.80423
   C       -9.40781       -10.48878         5.37554
   C       -9.17756       -11.72127         6.01173
   C       -8.19674       -11.66528         6.96381
   C       -7.61919       -10.38211         7.13095
   S       -8.36788        -9.25456         6.02452
   C       -6.60270       -10.04253         7.99437
   C       -6.05803        -8.76080         8.19382
   S       -4.60801        -8.57161         9.17647
   C       -4.54597        -6.86703         8.99763
   C       -5.59229        -6.42593         8.22094
   C       -6.43233        -7.49121         7.77180
   O       -7.46300        -7.00269         7.05748
   C       -7.29497        -5.65504         7.03307
   N       -8.28811        -4.90239         6.36259
   O       -8.21252        -3.69360         6.44013
   O       -9.16458        -5.51232         5.78413
   C       -6.18656        -5.23479         7.71403
   H      -24.15369        -7.43585        -5.43363
   H      -21.74655       -11.01109        -2.88161
   H      -26.15991        -9.37092        -5.75287
   H      -18.50860        -6.45667        -2.78506
   H      -20.15673        -4.46272        -4.43647
   H      -18.94226        -2.14279        -4.58406
   H      -16.80842        -0.95015        -3.74652
   H      -14.69366        -0.38463        -2.64766
   H      -12.51909        -0.43268        -1.25844
   H      -11.12283        -2.02971         0.24259
   H       -8.89256        -6.47686         3.42168
   H      -12.82523        -8.06605         1.18238
   H      -12.69509       -10.44996         2.06883
   H      -11.46494       -11.87553         3.83720
   H       -9.72608       -12.61052         5.75711
   H       -7.87497       -12.50548         7.55345
   H       -6.15841       -10.84043         8.57386
   H       -3.76516        -6.30490         9.46597
   H       -5.85801        -4.22263         7.82514
*
