# ORCA input file
# SCF done       -152.929650062973          0.000463707343
! CAM-B3LYP def2-SVP def2/J RIJCOSX Grid4 TightSCF
%maxcore 5000
%tddft
    Mode sTDDFT
    Ethresh 5.0
    maxcore 5000
end

%pal
  nprocs 6
  end
* xyz 0 1
   C       13.72332        -8.85086         2.28047
   C       13.06828        -8.00738         1.47070
   C       13.62127        -6.97345         0.64380
   C       12.70548        -6.28089        -0.06935
   C       11.36291        -6.70750         0.13236
   S       11.30829        -8.03078         1.27347
   C       10.22801        -6.19854        -0.45971
   C       10.12896        -5.14386        -1.39698
   C        8.85560        -4.88702        -1.80020
   C        7.86697        -5.71901        -1.21303
   S        8.63541        -6.84050        -0.10729
   C        6.52850        -5.66032        -1.52747
   C        5.45842        -6.43721        -1.04792
   C        5.50129        -7.28788         0.02888
   C        4.40724        -8.07680         0.42952
   C        3.28437        -8.20372        -0.33877
   C        3.21550        -7.49572        -1.67164
   C        4.11170        -6.24441        -1.73707
   N        4.32355        -5.79940        -3.09733
   C        4.33170        -6.66585        -4.00892
   C        4.05412        -8.09274        -3.75189
   N        3.53743        -8.48887        -2.67737
   F        4.38300        -8.97226        -4.69140
   F        4.56479        -6.28896        -5.26166
   C        2.22102        -9.08022        -0.01333
   S        0.83061        -9.30677        -1.06709
   C        0.09838       -10.47873        -0.02080
   C        0.87978       -10.69425         1.10394
   C        2.06736        -9.90106         1.08498
   O        2.80853       -10.12764         2.18828
   C        2.11132       -11.05324         2.90795
   N        2.66779       -11.47839         4.13573
   O        2.03150       -12.30098         4.76742
   O        3.72898       -10.99763         4.47381
   C        0.94116       -11.43771         2.31264
   N       -1.09876       -11.04748        -0.39065
   C       -1.72923       -10.66803        -1.59403
   O       -1.26600        -9.82506        -2.32805
   C       -2.93742       -11.46415        -1.69455
   C       -3.02717       -12.27577        -0.60699
   C       -1.84050       -12.02986         0.27033
   O       -1.55408       -12.54425         1.31746
   C       -4.01032       -13.23547        -0.23679
   O       -3.87473       -13.88443         0.93138
   C       -4.90116       -14.73537         1.07984
   C       -5.73881       -14.65046        -0.01724
   C       -5.17081       -13.68779        -0.86600
   C       -5.71841       -13.26066        -2.17996
   F       -4.85711       -13.46819        -3.19394
   F       -6.84034       -13.91734        -2.49357
   F       -6.02130       -11.94865        -2.21654
   C       -4.99613       -15.55834         2.25638
   C       -4.09225       -15.53646         3.23387
   H       14.79418        -8.80458         2.37167
   H       13.20655        -9.59321         2.86055
   H       14.68187        -6.79707         0.62147
   H       12.94203        -5.47410        -0.73993
   H       10.99368        -4.61175        -1.75007
   H        8.58699        -4.12599        -2.51148
   H        6.27083        -4.93256        -2.28698
   H        6.40208        -7.35576         0.61698
   H        4.48340        -8.63059         1.35187
   H        2.17363        -7.20010        -1.86488
   H        3.60206        -5.41519        -1.22733
   H        0.23448       -12.14849         2.68828
   H       -3.60778       -11.37071        -2.52526
   H       -6.63871       -15.20319        -0.19203
   H       -5.86081       -16.20442         2.29280
   H       -3.23329       -14.88894         3.18154
   H       -4.18636       -16.16344         4.10232
*
