# ORCA input file
# SCF done       -144.193917156471          0.000880660850
! CAM-B3LYP def2-SVP def2/J RIJCOSX Grid4 TightSCF
%maxcore 5000
%tddft
    Mode sTDDFT
    Ethresh 5.0
    maxcore 5000
end

%pal
  nprocs 6
  end
* xyz 0 1
   C       -1.42953         0.86573         5.21383
   S       -1.44800         2.57470         5.00147
   C       -2.04859         2.48582         3.37494
   C       -2.22545         1.15613         3.01974
   C       -1.86888         0.25799         4.07642
   O       -2.05545        -1.02157         3.69332
   C       -2.52341        -0.94603         2.41414
   N       -2.81184        -2.16581         1.75071
   O       -3.22581        -2.07517         0.61123
   O       -2.62853        -3.19799         2.35712
   C       -2.64957         0.33473         1.94665
   C       -2.30611         3.62754         2.57820
   S       -2.06129         5.27999         3.12028
   C       -2.64063         5.74208         1.51978
   N       -2.93974         4.70768         0.78216
   N       -2.75924         3.55548         1.35425
   C       -2.75592         7.10047         1.12767
   C       -3.21467         7.45781        -0.09787
   C       -3.34162         8.81127        -0.50004
   N       -3.79945         9.20249        -1.73768
   C       -4.16705         8.33764        -2.83292
   C       -2.94275         7.78541        -3.55849
   C       -3.83297        10.59959        -1.86990
   O       -4.20557        11.17006        -2.87764
   C       -3.35976        11.09256        -0.59577
   C       -3.06744         9.97014         0.22193
   C       -2.60552        10.46085         1.50053
   O       -2.24546         9.89145         2.51252
   N       -2.65403        11.85957         1.37451
   C       -2.20908        12.71790         2.44575
   C       -0.78787        13.22529         2.21348
   C       -3.09422        12.25078         0.13094
   C       -3.23496        13.60951        -0.26118
   C       -3.66899        13.96295        -1.49312
   C       -3.83702        15.30813        -1.96433
   C       -4.44633        15.54801        -3.21014
   N       -4.62853        16.75232        -3.69565
   C       -4.20577        17.78027        -2.95252
   N       -3.60672        17.67644        -1.76510
   C       -3.42458        16.46831        -1.28635
   C       -4.41144        19.09357        -3.49002
   S       -5.22247        19.29802        -5.01577
   C       -5.09016        21.00242        -4.98334
   C       -4.44364        21.42444        -3.84491
   C       -4.06154        20.33052        -3.00022
   O       -3.43029        20.77365        -1.90088
   C       -3.40045        22.12895        -2.02502
   N       -2.77819        22.87692        -0.99127
   O       -2.77047        24.08495        -1.13454
   O       -2.30506        22.27339        -0.05543
   C       -3.99190        22.59119        -3.16870
   H       -1.10510         0.43638         6.13864
   H       -2.99411         0.63889         0.98031
   H       -2.46342         7.84943         1.85033
   H       -3.49693         6.67841        -0.79017
   H       -4.75305         8.95492        -3.51983
   H       -4.79758         7.52550        -2.46125
   H       -2.34367         8.60294        -3.95233
   H       -3.26032         7.15761        -4.38617
   H       -2.32484         7.19323        -2.88741
   H       -2.23544        12.10706         3.35255
   H       -2.90789        13.55067         2.56359
   H       -0.10106        12.38480         2.15041
   H       -0.48373        13.86122         3.04020
   H       -0.72174        13.79525         1.28912
   H       -2.99008        14.36420         0.47161
   H       -3.93025        13.18546        -2.19983
   H       -4.79655        14.72533        -3.82130
   H       -2.92049        16.42577        -0.32950
   H       -5.48516        21.59241        -5.78521
   H       -4.07989        23.61588        -3.46490
*
