# ORCA input file
# SCF done       -206.047752419813          0.000999557150
! CAM-B3LYP def2-SVP def2/J RIJCOSX Grid4 TightSCF
%maxcore 5000
%tddft
    Mode sTDDFT
    Ethresh 5.0
    maxcore 5000
end

%pal
  nprocs 6
  end
* xyz 0 1
   C        2.47560        -0.92085        -6.70158
   S        3.50825         0.42899        -6.78523
   C        2.69365         1.20232        -5.44366
   C        1.65043         0.41021        -4.99005
   C        1.54429        -0.80266        -5.70667
   C        0.50432        -1.85028        -5.42145
   C       -0.49879        -1.88024        -6.57603
   F        0.06297        -2.35871        -7.70056
   F       -1.55037        -2.67328        -6.32096
   F       -0.99821        -0.67863        -6.89500
   C       -0.17821        -1.59970        -4.07376
   C       -0.52201        -0.12561        -3.89653
   C        0.76385         0.70904        -3.81216
   O        1.54383         0.41243        -2.66534
   C        1.01032         0.85082        -1.43589
   C        3.16894         2.47682        -5.02558
   C        2.73112         3.31235        -4.02407
   C        3.48975         4.51580        -4.04801
   C        4.50312         4.34519        -5.10667
   C        4.29361         3.13670        -5.68533
   C        5.55989         5.20947        -5.41965
   N        6.47496         5.85321        -5.67819
   C        3.28611         5.64888        -3.29156
   C        3.95089         6.89878        -3.40933
   C        3.44299         7.77931        -2.47171
   C        2.41679         7.07823        -1.72025
   C        2.29877         5.81504        -2.21399
   C        1.36959         4.87656        -1.76103
   N        0.57853         4.14022        -1.36701
   C        3.84335         9.13944        -2.36891
   N        3.66386         9.99112        -1.30208
   C        3.18799         9.67451         0.02397
   C        4.08266         8.66396         0.73402
   C        4.16262        11.27913        -1.57326
   O        4.12042        12.19291        -0.76991
   C        4.66245        11.20011        -2.92373
   C        4.46770         9.87296        -3.37750
   C        4.91187         9.80194        -4.75398
   O        4.91733         8.90895        -5.57143
   N        5.38624        11.10338        -5.02813
   C        5.89367        11.44003        -6.33627
   C        4.83970        12.14070        -7.19034
   C        5.22967        11.94690        -3.95888
   C        5.58943        13.32107        -3.98212
   C        5.37229        14.14262        -2.92854
   C        5.66220        15.55097        -2.87754
   C        6.30749        16.24732        -3.89904
   C        6.52876        17.61187        -3.81169
   N        7.15599        18.22449        -4.95466
   O        7.81996        17.50302        -5.67243
   O        6.98062        19.40817        -5.15338
   C        6.12226        18.35990        -2.68751
   C        5.49279        17.63940        -1.65932
   C        5.26665        16.28838        -1.74740
   C        6.37151        19.77356        -2.55309
   C        5.59436        20.61169        -1.84031
   C        5.83570        22.01377        -1.72496
   S        7.31616        22.72108        -2.30759
   C        6.82693        24.27532        -1.79690
   C        5.59236        24.27622        -1.21723
   C        5.02118        22.98302        -1.17041
   C        3.64329        22.75667        -0.61486
   C        2.65083        22.57748        -1.77054
   F        2.84284        23.43109        -2.78412
   F        2.72008        21.34528        -2.30219
   F        1.37457        22.73293        -1.38141
   C        3.23728        23.92444         0.29174
   C        3.45723        25.26876        -0.39485
   C        4.95808        25.49780        -0.61145
   O        5.64126        25.73547         0.61335
   C        5.57535        27.05837         1.07830
   H        2.60255        -1.73593        -7.38678
   H        0.96722        -2.84443        -5.42540
   H        0.51799        -1.88797        -3.28359
   H       -1.07257        -2.21889        -3.99050
   H       -1.09776         0.01106        -2.98111
   H       -1.12483         0.24250        -4.72641
   H        0.48141         1.77363        -3.80799
   H        1.81024         0.72811        -0.70784
   H        0.15062         0.24838        -1.12375
   H        0.71381         1.90391        -1.47324
   H        1.94274         3.12807        -3.32676
   H        4.85951         2.70962        -6.49280
   H        4.71291         7.12121        -4.12928
   H        1.80760         7.48972        -0.93867
   H        2.15342         9.32336        -0.01962
   H        3.19935        10.62485         0.56695
   H        4.11351         7.71861         0.19656
   H        3.70396         8.48113         1.73608
   H        5.09604         9.05136         0.81009
   H        6.17055        10.49126        -6.80456
   H        6.79002        12.05761        -6.23488
   H        3.97704        11.49150        -7.31834
   H        5.25186        12.36706        -8.16956
   H        4.50969        13.06753        -6.72568
   H        6.03519        13.69483        -4.89181
   H        4.91639        13.72977        -2.03816
   H        6.64596        15.74367        -4.79144
   H        5.20161        18.16745        -0.76494
   H        4.77656        15.77001        -0.93664
   H        7.20619        20.19045        -3.09970
   H        4.69979        20.24060        -1.36095
   H        7.47811        25.11347        -1.94544
   H        3.60187        21.82127        -0.04530
   H        3.86128        23.88992         1.18692
   H        2.19405        23.81446         0.59085
   H        3.05761        26.06588         0.23316
   H        2.94383        25.31140        -1.35487
   H        5.11125        26.35944        -1.28101
   H        6.19366        27.09490         1.97299
   H        4.55343        27.35787         1.33703
   H        5.96982        27.76108         0.33400
*
