# ORCA input file
# SCF done       -172.075869656484          0.000461067551
! CAM-B3LYP def2-SVP def2/J RIJCOSX Grid4 TightSCF
%maxcore 5000
%tddft
    Mode sTDDFT
    Ethresh 5.0
    maxcore 5000
end

%pal
  nprocs 6
  end
* xyz 0 1
   C        5.02893         4.05281        -1.03514
   C        4.91492         5.34990        -0.64112
   S        6.27916         5.83980         0.29558
   C        7.02112         4.26256         0.15952
  Cl        8.51786         3.92523         0.87725
   C        6.23527         3.42921        -0.57899
   C        6.27702         2.03320        -1.02587
   O        7.10227         1.19143        -0.75562
   C        5.01582         1.84820        -1.80897
   C        4.26389         3.09351        -1.80633
   C        3.08346         3.36681        -2.44441
   C        2.48253         4.64057        -2.35821
   N        1.98232         5.67096        -2.29405
   C        2.35795         2.46501        -3.24840
   N        1.72924         1.78309        -3.92475
   C        4.58956         0.64851        -2.29241
   C        5.36582        -0.53847        -2.39825
   C        4.87591        -1.81844        -2.26205
   C        5.95150        -2.74791        -2.40207
   C        7.14779        -1.94481        -2.69484
   C        6.79289        -0.63270        -2.68348
   C        8.45532        -2.41026        -2.88935
   N        9.54674        -2.74215        -3.01999
   C        5.89924        -4.11664        -2.25977
   C        6.95749        -5.04216        -2.45545
   C        6.53569        -6.30591        -2.08586
   C        5.14556        -6.20148        -1.66285
   C        4.74699        -4.90903        -1.79136
   C        3.46488        -4.43808        -1.48660
   N        2.40252        -4.08982        -1.22302
   C        7.37616        -7.44771        -2.13877
   N        7.25289        -8.62119        -1.43314
   C        6.28622        -8.95249        -0.41181
   C        6.42372        -8.06744         0.82266
   C        8.32776        -9.49483        -1.68440
   O        8.44792       -10.58100        -1.15151
   C        9.14107        -8.80189        -2.65598
   C        8.53567        -7.55448        -2.91363
   C        9.30685        -6.88702        -3.94639
   O        9.15539        -5.84144        -4.53366
   N       10.36746        -7.78185        -4.21321
   C       11.40946        -7.43119        -5.14889
   C       12.63197        -6.85321        -4.44086
   C       10.29207        -8.91412        -3.44762
   C       11.24591        -9.95858        -3.47830
   C       11.15154       -11.05612        -2.67744
   C       12.11761       -12.04089        -2.66667
   C       12.99477       -12.89195        -2.64212
   C       13.98120       -13.79108        -2.60944
   C       14.92956       -14.56337        -2.63476
   C       15.95232       -15.47976        -2.56442
   C       16.77080       -15.91645        -3.56171
   C       17.64703       -17.09735        -3.28364
   O       17.84772       -17.59456        -2.20110
   C       18.14414       -17.50471        -4.60056
   C       18.92107       -18.49937        -5.11422
   S       19.05744       -18.33423        -6.84923
   C       18.06874       -16.91961        -6.85621
   C       17.65741       -16.59874        -5.60006
   C       16.87841       -15.55124        -4.96127
   C       16.45366       -14.41440        -5.59662
   C       16.61778       -14.25639        -6.99042
   N       16.72491       -14.11449        -8.12387
   C       15.91847       -13.25840        -4.99820
   N       15.54253       -12.24900        -4.60111
  Cl       19.69134       -19.75931        -4.28468
   H        4.12726         6.05210        -0.82957
   H        3.55287         0.55066        -2.59328
   H        3.85874        -2.08255        -2.04563
   H        7.43872         0.19711        -2.89328
   H        7.92961        -4.78875        -2.82768
   H        4.51653        -7.01150        -1.34744
   H        6.49409        -9.99297        -0.14387
   H        5.27535        -8.90296        -0.82385
   H        7.42475        -8.15897         1.23753
   H        5.70605        -8.37869         1.57654
   H        6.24296        -7.02204         0.58193
   H       10.97926        -6.67336        -5.80959
   H       11.67760        -8.30868        -5.74291
   H       12.35251        -5.95613        -3.89391
   H       13.38853        -6.59042        -5.17455
   H       13.05692        -7.57129        -3.74275
   H       12.09226        -9.86405        -4.14412
   H       10.31399       -11.17723        -1.99868
   H       16.09603       -15.96476        -1.60080
   H       17.85891       -16.43215        -7.78744
*
