# ORCA input file
# SCF done       -238.047704290419          0.000815592818
! CAM-B3LYP def2-SVP def2/J RIJCOSX Grid4 TightSCF
%maxcore 5000
%tddft
    Mode sTDDFT
    Ethresh 5.0
    maxcore 5000
end

%pal
  nprocs 6
  end
* xyz 0 1
   C       -0.01372         0.46284         0.75893
   C       -0.74821         1.30962         1.53126
   S       -0.11819         1.39680         3.13426
   C        1.16392         0.26957         2.76320
  Cl        2.29761        -0.19516         3.93150
   C        1.08134        -0.13483         1.46276
   C        1.82321        -1.03500         0.57751
   O        2.80826        -1.68382         0.84045
   C        1.12708        -0.91857        -0.74961
   C       -0.02346        -0.02632        -0.60283
   C       -0.98236         0.26509        -1.53176
   C       -2.05620         1.13122        -1.22846
   N       -2.93237         1.83318        -0.99555
   C       -1.04323        -0.24995        -2.84345
   N       -1.15418        -0.64445        -3.91517
   C        1.59079        -1.40697        -1.92212
   C        2.68946        -2.33294        -2.10499
   C        3.55046        -2.15355        -3.18703
   C        4.62147        -3.00839        -3.37818
   N        5.55730        -2.70409        -4.43211
   O        5.19138        -1.94795        -5.30333
   O        6.66031        -3.20475        -4.36269
   C        4.84985        -4.10564        -2.53275
   C        3.95853        -4.28885        -1.47134
   C        2.90516        -3.42748        -1.25839
   C        5.90773        -5.06317        -2.78244
   C        6.72452        -5.53375        -1.81805
   C        7.71954        -6.51366        -2.09653
   N        8.67953        -6.91701        -1.20493
   C        8.84413        -6.46424         0.15563
   C        7.87658        -7.16567         1.10590
   C        9.52397        -7.90843        -1.75167
   O       10.45027        -8.41408        -1.15745
   C        9.01288        -8.09650        -3.09236
   C        7.91175        -7.23310        -3.27610
   C        7.40444        -7.45615        -4.61323
   O        6.49032        -6.94841        -5.22911
   N        8.23078        -8.46730        -5.14382
   C        8.08913        -8.85909        -6.52712
   C        7.06235        -9.97556        -6.70766
   C        9.18460        -8.86844        -4.23920
   C       10.16003        -9.88995        -4.32129
   C       10.20887       -10.95131        -5.16928
   C       11.19455       -11.97462        -5.09368
   C       12.03258       -12.02940        -3.87488
   C       13.42410       -11.95818        -3.93683
   C       14.20361       -11.97969        -2.78396
   C       13.59378       -12.08906        -1.53687
   C       12.20617       -12.17865        -1.45164
   C       11.44482       -12.14365        -2.61381
   F       10.11653       -12.25659        -2.51877
   F       11.61685       -12.30658        -0.26535
   F       14.33353       -12.11708        -0.43256
   F       15.53003       -11.90102        -2.87019
   F       14.02606       -11.85448        -5.12023
   C       11.36710       -12.93122        -6.07821
   C       10.60831       -12.84328        -7.34036
   C       10.55185       -11.67151        -8.10291
   C        9.84820       -11.60509        -9.30106
   C        9.17709       -12.72644        -9.78048
   C        9.20408       -13.90125        -9.03491
   C        9.90025       -13.94337        -7.83279
   F        9.85246       -15.07974        -7.12624
   F        8.55611       -14.98421        -9.46502
   F        8.50411       -12.67106       -10.92525
   F        9.80895       -10.46252        -9.98470
   F       11.18136       -10.57190        -7.69055
   C       12.17745       -14.07908        -5.82494
   C       12.62508       -15.05706        -6.65601
   C       12.98029       -16.37968        -6.03868
   O       13.23129       -16.57978        -4.87623
   C       12.87694       -17.32862        -7.15129
   C       12.93603       -18.67961        -7.32635
   S       12.68231       -19.09115        -9.00619
   C       12.51300       -17.43361        -9.45609
   C       12.63567       -16.61919        -8.37534
   C       12.64306       -15.19689        -8.09847
   C       12.84324       -14.21024        -9.02598
   C       12.81487       -14.48100       -10.40847
   N       12.74607       -14.68891       -11.53460
   C       13.20119       -12.88991        -8.68525
   N       13.57145       -11.83172        -8.44375
  Cl       13.20946       -19.87304        -6.15778
   H       -1.61085         1.89091         1.27230
   H        1.13556        -1.05852        -2.84158
   H        3.42253        -1.32278        -3.86600
   H        4.09013        -5.14363        -0.82628
   H        2.22176        -3.61765        -0.44752
   H        6.02033        -5.42429        -3.79834
   H        6.66797        -5.13271        -0.81587
   H        8.71734        -5.37935         0.19642
   H        9.87202        -6.71043         0.43581
   H        6.84322        -6.97629         0.82373
   H        8.03369        -6.80817         2.11953
   H        8.04970        -8.23874         1.08578
   H        9.07024        -9.13558        -6.91695
   H        7.73735        -7.97361        -7.06552
   H        7.30996       -10.85186        -6.11134
   H        7.01063       -10.26130        -7.75502
   H        6.08278        -9.62008        -6.39887
   H       10.90912        -9.80003        -3.54481
   H        9.45394       -11.06786        -5.92903
   H       12.38878       -14.27592        -4.77827
   H       12.32300       -17.17951       -10.48022
*
