# ORCA input file
# SCF done       -197.790186480121          0.000723766230
! CAM-B3LYP def2-SVP def2/J RIJCOSX Grid4 TightSCF
%maxcore 5000
%tddft
    Mode sTDDFT
    Ethresh 5.0
    maxcore 5000
end

%pal
  nprocs 6
  end
* xyz 0 1
   C        5.16317        -1.82152        -3.59947
   C        5.39283        -2.05891        -4.91931
   S        6.86740        -2.92493        -5.15060
   C        7.18187        -2.97405        -3.43231
  Cl        8.56367        -3.73055        -2.81054
   C        6.18689        -2.34323        -2.74688
   C        5.87508        -2.05581        -1.34248
   O        6.52429        -2.38900        -0.37828
   C        4.60377        -1.26212        -1.39403
   C        4.14619        -1.19594        -2.77818
   C        2.96206        -0.70615        -3.25833
   C        2.67964        -0.71474        -4.64189
   N        2.43593        -0.71074        -5.76264
   C        1.88792        -0.20193        -2.49526
   N        0.95665         0.18808        -1.95012
   C        3.99340        -0.60184        -0.36729
   C        4.32895        -0.59051         1.00575
   O        5.28770        -1.37635         1.54481
   C        3.77396         0.16355         2.03252
   C        2.78284         1.21179         2.33678
   O        2.03128         1.81430         1.62132
   N        2.91548         1.38779         3.70932
   C        3.88492         0.59561         4.33055
   O        4.14856         0.62139         5.49967
   C        4.43780        -0.19803         3.22100
   C        5.37994        -1.16119         2.87654
   C        6.35026        -1.87562         3.62348
   C        7.23298        -2.69167         2.98556
   C        8.23632        -3.43621         3.64880
   N        9.16889        -4.20413         2.99350
   C        9.33300        -4.32623         1.56397
   C       10.02268        -3.10365         0.96525
   C       10.04645        -4.84401         3.88689
   O       10.94844        -5.57588         3.53960
   C        9.58689        -4.42741         5.19726
   C        8.47896        -3.56749         5.01636
   C        8.00470        -3.16573         6.32398
   O        7.09604        -2.44347         6.67400
   N        8.87350        -3.81570         7.21968
   C        8.69160        -3.69932         8.64638
   C        7.97904        -4.91794         9.22812
   C        9.81909        -4.57132         6.56541
   C       10.82225        -5.31590         7.23027
   C       11.77860        -6.03607         6.58493
   C       12.77092        -6.76333         7.28690
   O       12.76760        -6.80658         8.65075
   C       13.84977        -7.50948         6.83893
   C       14.58256        -7.95056         5.64290
   O       14.39329        -7.76160         4.47476
   N       15.63988        -8.70214         6.17045
   C       15.67366        -8.79635         7.55025
   O       16.49194        -9.40739         8.19251
   C       14.50843        -8.01323         7.98223
   C       13.81142        -7.55478         9.08822
   C       14.04379        -7.72013        10.47751
   C       15.10408        -8.43387        10.92964
   C       15.42842        -8.60490        12.29764
   C       16.61573        -9.08007        12.76073
   C       16.73256        -9.59432        14.16131
   O       15.94705        -9.41579        15.06023
   C       17.96492       -10.39169        14.14814
   C       18.63949       -11.20631        15.00820
   S       20.08277       -11.83675        14.25052
   C       19.76330       -10.98408        12.78357
   C       18.61299       -10.26604        12.87371
   C       17.85362        -9.34560        12.04704
   C       18.33491        -8.72048        10.92861
   C       19.58402        -9.07541        10.37533
   N       20.59525        -9.36321         9.91716
   C       17.73827        -7.61153        10.29334
   N       17.33888        -6.66382         9.78443
  Cl       18.22901       -11.61493        16.59976
   H        4.80587        -1.78572        -5.77348
   H        3.13925         0.02521        -0.59124
   H        2.35709         2.05434         4.22394
   H        6.36083        -1.73232         4.69488
   H        7.17067        -2.77093         1.90858
   H        8.35885        -4.48265         1.09386
   H        9.95354        -5.21316         1.40782
   H        9.41637        -2.21119         1.09953
   H       10.17868        -3.25826        -0.09839
   H       10.98936        -2.94910         1.43861
   H        8.07549        -2.80879         8.79940
   H        9.66046        -3.54477         9.12895
   H        7.00060        -5.02907         8.76749
   H        7.84519        -4.78911        10.29847
   H        8.54969        -5.82728         9.05229
   H       10.82926        -5.29830         8.31101
   H       11.82301        -6.08008         5.50500
   H       16.33631        -9.13637         5.58101
   H       13.37414        -7.20866        11.15416
   H       15.74159        -8.91840        10.20330
   H       14.66502        -8.40588        13.04154
   H       20.44053       -11.08139        11.95842
*
