# ORCA input file
# SCF done       -174.336960739456          0.000577216113
! CAM-B3LYP def2-SVP def2/J RIJCOSX Grid4 TightSCF
%maxcore 5000
%tddft
    Mode sTDDFT
    Ethresh 5.0
    maxcore 5000
end

%pal
  nprocs 6
  end
* xyz 0 1
   C       -1.90024        -1.51994        -6.06901
   C       -3.12024        -1.05767        -6.45419
   S       -4.20010        -2.35910        -6.79885
   C       -2.98500        -3.55537        -6.41226
  Cl       -3.31298        -5.21374        -6.52056
   C       -1.82022        -2.94994        -6.04628
   C       -0.48497        -3.37056        -5.60788
   O       -0.09150        -4.49658        -5.40810
   C        0.25382        -2.09265        -5.36662
   C       -0.62113        -0.96989        -5.66793
   C       -0.31538         0.36478        -5.64972
   C       -1.27690         1.34110        -5.98636
   N       -2.04796         2.14719        -6.25403
   C        0.94369         0.91404        -5.33444
   N        1.94844         1.42080        -5.10792
   C        1.48603        -2.01378        -4.79169
   C        2.40269        -3.08191        -4.59081
   C        3.30704        -3.15413        -3.55244
   C        4.04138        -4.37322        -3.65530
   C        3.57215        -5.02479        -4.88657
   C        2.59312        -4.25390        -5.43241
   C        4.04972        -6.22131        -5.43261
   N        4.43403        -7.19883        -5.89867
   C        4.98018        -4.86548        -2.77519
   C        5.69580        -6.08476        -2.87445
   C        6.50569        -6.22413        -1.76461
   C        6.31685        -5.05480        -0.91690
   C        5.41601        -4.23321        -1.50982
   C        4.97930        -3.01125        -0.98449
   N        4.64223        -2.01582        -0.52160
   C        7.36398        -7.29871        -1.46539
   S        8.26185        -7.38527         0.03492
   C        8.98547        -8.91729        -0.35298
   C        8.54991        -9.33578        -1.61030
   C        7.64229        -8.42870        -2.22102
   S        7.15402        -9.03407        -3.76288
   C        8.18892       -10.42000        -3.45811
   N        8.82379       -10.44303        -2.34979
   C        9.85320        -9.56100         0.56100
   C       10.45978       -10.74131         0.29158
   C       11.32993       -11.45937         1.18238
   C       11.47270       -11.13513         2.53628
   C       12.31696       -11.85949         3.35256
   N       12.26111       -11.55041         4.76273
   O       12.19313       -10.38139         5.07236
   O       12.23767       -12.47995         5.53975
   C       13.10525       -12.91522         2.86000
   C       12.91623       -13.26184         1.51528
   C       12.05285       -12.56393         0.70391
   C       14.12976       -13.58505         3.62320
   C       14.88137       -13.00556         4.58318
   C       15.91435       -13.69303         5.27304
   C       16.82232       -13.15013         6.12491
   C       17.58259       -14.04762         7.05413
   O       17.68758       -15.24621         6.96520
   C       18.10278       -13.14265         8.08501
   C       18.78036       -13.24959         9.26283
   S       19.04092       -11.67000         9.96481
   C       18.24107       -10.88358         8.65329
   C       17.79625       -11.78491         7.73767
   C       17.11899       -11.76605         6.45396
   C       16.98772       -10.65453         5.66478
   C       17.37122        -9.37837         6.13182
   N       17.66786        -8.33486         6.50382
   C       16.57873       -10.65216         4.31581
   N       16.29352       -10.59974         3.20505
  Cl       19.33571       -14.65591        10.02533
   H       -3.46435        -0.04766        -6.55660
   H        1.81049        -1.05517        -4.40325
   H        3.41050        -2.43790        -2.76048
   H        2.07892        -4.44673        -6.35330
   H        5.60625        -6.78177        -3.68308
   H        6.82268        -4.89305         0.01729
   H        8.26189       -11.19830        -4.19251
   H       10.01369        -9.04553         1.49734
   H       10.29245       -11.18619        -0.68000
   H       10.89765       -10.33737         2.98056
   H       13.48962       -14.08104         1.10866
   H       11.93663       -12.85515        -0.32921
   H       14.36865       -14.59321         3.31034
   H       14.71055       -11.97523         4.85741
   H       15.94438       -14.77311         5.17949
   H       18.14731        -9.81574         8.65817
*
