# ORCA input file
# SCF done       -174.241203481281          0.000927229682
! CAM-B3LYP def2-SVP def2/J RIJCOSX Grid4 TightSCF
%maxcore 5000
%tddft
    Mode sTDDFT
    Ethresh 5.0
    maxcore 5000
end

%pal
  nprocs 6
  end
* xyz 0 1
   C        0.70550         0.38804        -4.14180
   C       -0.45763         1.08203        -4.28045
   S       -1.76661         0.26825        -3.50682
   C       -0.73091        -1.04072        -2.98548
  Cl       -1.33573        -2.34269        -2.08815
   C        0.54978        -0.82591        -3.39912
   C        1.83694        -1.51962        -3.29134
   O        2.04696        -2.60178        -2.79698
   C        2.81018        -0.63109        -4.01114
   C        2.09018         0.52197        -4.54477
   C        2.57828         1.57156        -5.27429
   C        1.73444         2.62239        -5.69788
   N        1.06854         3.48799        -6.04880
   C        3.89971         1.76550        -5.71682
   N        4.93461         2.02064        -6.14452
   C        4.10996        -0.92837        -4.25436
   C        4.85967        -2.03080        -3.69891
   C        4.71313        -2.46309        -2.38282
   C        5.40358        -3.57212        -1.92302
   N        5.14225        -3.97106        -0.56343
   O        4.77884        -3.10814         0.20681
   O        5.29263        -5.13767        -0.26562
   C        6.28387        -4.29544        -2.75074
   C        6.48311        -3.78885        -4.04477
   C        5.79971        -2.68974        -4.50621
   C        7.02006        -5.45705        -2.30670
   C        7.39675        -6.43595        -3.14949
   C        8.14205        -7.59775        -2.78151
   S        8.28246        -8.12317        -1.13086
   C        9.13368        -9.53773        -1.58889
   C        9.32886        -9.61598        -2.93790
   C        8.77561        -8.49673        -3.62487
   N        8.88526        -8.38226        -5.00590
   C        9.07017        -9.64911        -5.67084
   C       10.26942       -10.37141        -5.04349
   N       10.02885       -10.61823        -3.63110
   C       10.40688       -11.78459        -2.99510
   O        9.99137       -12.12065        -1.92426
   O       11.29406       -12.54615        -3.66338
   C        8.94453        -7.18125        -5.61946
   C        8.83967        -6.90308        -6.94230
   C        8.85356        -5.54600        -7.35502
   S        8.74401        -5.04248        -9.03336
   C        8.78912        -3.38764        -8.40291
   N        8.87471        -3.36207        -7.10527
   N        8.90792        -4.52800        -6.53032
   C        8.72055        -2.24143        -9.23581
   C        8.76996        -0.98891        -8.71935
   C        8.70718         0.18738        -9.50292
   C        8.60588         1.46192        -9.03315
   C        8.95678         2.61688        -9.91548
   O        9.08824         2.59322       -11.11568
   C        9.15751         3.73448        -8.98290
   C        9.54830         5.03800        -9.04997
   S        9.54624         5.76242        -7.45837
   C        9.00558         4.29733        -6.72216
   C        8.84707         3.31414        -7.64645
   C        8.37642         1.94314        -7.68391
   C        7.68489         1.32329        -6.67835
   C        7.59165         1.88113        -5.38526
   N        7.56532         2.28770        -4.31294
   C        6.91239         0.15976        -6.84690
   N        6.20862        -0.74291        -6.94418
  Cl        9.99115         5.92822       -10.42157
   H       -0.64129         2.01075        -4.78299
   H        4.64994        -0.33079        -4.98000
   H        4.07019        -1.94152        -1.69160
   H        7.21856        -4.25129        -4.68553
   H        5.97331        -2.33246        -5.51075
   H        7.26278        -5.54538        -1.25700
   H        7.08454        -6.39064        -4.18449
   H        9.44133       -10.23928        -0.84248
   H        8.17174       -10.26516        -5.55223
   H        9.25990        -9.48907        -6.73090
   H       11.16671        -9.75032        -5.17855
   H       10.39901       -11.32151        -5.56826
   H       11.77219       -12.08322        -4.36129
   H        9.08431        -6.34142        -4.95396
   H        8.70323        -7.65132        -7.70604
   H        8.59479        -2.40439       -10.29679
   H        8.89426        -0.89935        -7.64985
   H        8.82600         0.08602       -10.57632
   H        8.84821         4.26390        -5.66232
*
