# ORCA input file
# SCF done       -169.248364004897          0.000992318165
! CAM-B3LYP def2-SVP def2/J RIJCOSX Grid4 TightSCF
%maxcore 5000
%tddft
    Mode sTDDFT
    Ethresh 5.0
    maxcore 5000
end

%pal
  nprocs 6
  end
* xyz 0 1
   C        5.75193         3.96722        -0.65622
   C        5.78494         5.30869        -0.42761
   S        7.35981         5.82027         0.05532
   C        7.99403         4.19506        -0.05225
  Cl        9.61287         3.85116         0.30350
   C        7.01537         3.32799        -0.44036
   C        6.90772         1.89038        -0.70080
   O        7.78344         1.06070        -0.63875
   C        5.48377         1.69199        -1.13746
   C        4.78315         2.97254        -1.06315
   C        3.45438         3.21540        -1.27665
   C        2.91695         4.51478        -1.14776
   N        2.46692         5.56517        -1.05050
   C        2.48619         2.25058        -1.62196
   N        1.65122         1.51333        -1.89945
   C        4.98804         0.56203        -1.69375
   C        5.62864        -0.73263        -1.74828
   C        6.35156        -1.25587        -0.67655
   C        6.95425        -2.49598        -0.77496
   N        7.78128        -2.88444         0.34484
   O        7.33119        -2.69164         1.45331
   O        8.87382        -3.34788         0.10754
   C        6.83620        -3.29016        -1.92920
   C        6.11139        -2.74261        -2.99884
   C        5.50692        -1.51147        -2.90761
   C        7.33648        -4.63465        -2.07429
   C        7.49256        -5.54498        -1.08846
   C        7.96573        -6.86062        -1.35431
   N        8.24432        -7.78208        -0.37837
   C        8.12059        -7.59452         1.04755
   C        6.68311        -7.78876         1.52426
   C        8.69969        -9.00459        -0.91878
   O        9.01018        -9.96347        -0.24695
   C        8.68577        -8.77955        -2.34838
   C        8.23642        -7.45958        -2.58401
   C        8.20691        -7.26209        -4.01388
   O        7.88266        -6.30763        -4.69567
   N        8.64343        -8.48542        -4.55579
   C        8.79528        -8.60766        -5.98611
   C       10.25304        -8.47277        -6.42033
   C        8.94136        -9.40218        -3.56847
   C        9.40329       -10.73919        -3.66390
   C        9.66945       -11.48762        -4.76686
   C       10.11985       -12.79289        -4.68607
   C       10.53186       -13.94287        -4.67683
   C       11.00175       -15.19276        -4.68962
   C       11.45302       -16.32627        -4.78093
   C       11.91908       -17.61907        -4.79463
   C       11.95128       -18.48607        -5.84714
   C       12.23861       -19.92672        -5.57246
   O       12.65556       -20.38747        -4.53619
   C       11.85936       -20.61841        -6.80955
   C       11.79136       -21.90228        -7.25971
   S       11.19983       -21.94410        -8.90459
   C       11.05909       -20.22440        -8.96424
   C       11.44059       -19.65789        -7.78861
   C       11.58790       -18.32037        -7.23988
   C       11.50284       -17.16992        -7.97955
   C       11.08618       -17.20068        -9.32761
   N       10.72849       -17.20386       -10.41800
   C       11.89963       -15.88258        -7.57231
   N       12.27267       -14.81947        -7.35191
  Cl       12.19706       -23.32454        -6.43357
   H        4.99894         6.03266        -0.51220
   H        4.03036         0.61496        -2.19818
   H        6.44637        -0.70749         0.24711
   H        6.01305        -3.32726        -3.90076
   H        4.95014        -1.12280        -3.74731
   H        7.52995        -4.94214        -3.09435
   H        7.24823        -5.31332        -0.06230
   H        8.49405        -6.60346         1.31780
   H        8.76184        -8.35009         1.50977
   H        6.00929        -7.08334         1.04260
   H        6.63120        -7.64103         2.59918
   H        6.34892        -8.79759         1.29482
   H        8.21527        -7.78399        -6.41421
   H        8.35528        -9.54820        -6.32696
   H       10.62618        -7.48781        -6.15058
   H       10.32838        -8.58847        -7.49812
   H       10.88279        -9.21985        -5.94247
   H        9.54755       -11.19830        -2.69289
   H        9.54694       -11.11139        -5.77219
   H       12.24432       -18.02811        -3.84082
   H       10.69943       -19.75853        -9.85998
*
