# ORCA input file
# SCF done       -182.277333892817          0.000285368277
! CAM-B3LYP def2-SVP def2/J RIJCOSX Grid4 TightSCF
%maxcore 5000
%tddft
    Mode sTDDFT
    Ethresh 5.0
    maxcore 5000
end

%pal
  nprocs 6
  end
* xyz 0 1
   C        3.45075         3.36450        -1.00846
   C        2.69456         4.39022        -0.53184
   S        1.98878         3.98895         0.99120
   C        2.72973         2.40496         0.99095
  Cl        2.48690         1.31432         2.26248
   C        3.47039         2.22739        -0.13899
   C        4.29954         1.16360        -0.71647
   O        4.57928         0.09962        -0.21765
   C        4.79559         1.73373        -2.01107
   C        4.26017         3.07685        -2.17505
   C        4.41665         3.92570        -3.23969
   C        3.80894         5.19903        -3.25571
   N        3.32700         6.23977        -3.28364
   C        5.15498         3.66033        -4.40985
   N        5.73251         3.50825        -5.39064
   C        5.73458         1.16378        -2.81972
   C        6.21216        -0.17230        -2.79297
   C        5.58665        -1.32302        -2.36835
   C        6.45469        -2.43508        -2.58949
   C        7.68924        -1.88651        -3.17520
   C        7.52139        -0.54633        -3.31876
   C        8.87125        -2.57926        -3.47059
   N        9.87696        -3.08894        -3.68690
   C        6.19179        -3.75401        -2.29899
   C        7.04592        -4.87183        -2.49743
   C        6.45335        -6.00093        -1.96170
   C        5.14964        -5.60900        -1.43880
   C        4.97376        -4.27981        -1.65395
   C        3.80276        -3.58049        -1.33448
   N        2.80695        -3.06895        -1.07887
   C        7.06868        -7.27913        -1.96554
   N        6.78739        -8.34719        -1.14961
   C        5.79449        -8.44187        -0.10501
   C        4.48274        -9.02175        -0.62917
   C        7.64707        -9.43442        -1.39109
   O        7.59487       -10.47761        -0.77138
   C        8.50848        -8.98363        -2.46156
   C        8.13421        -7.66376        -2.78875
   C        8.96392        -7.22530        -3.89624
   O        8.98998        -6.20609        -4.54537
   N        9.82923        -8.31788        -4.12900
   C       10.80670        -8.27754        -5.19048
   C       10.34237        -9.05892        -6.41665
   C        9.57146        -9.36686        -3.28936
   C       10.31169       -10.57429        -3.27867
   C       10.01579       -11.60470        -2.44550
   C       10.79404       -12.78976        -2.41166
   S       10.40007       -14.14106        -1.36054
   C       11.83378       -14.90846        -2.02863
   N       12.43861       -14.15332        -2.90899
   N       11.87564       -13.00718        -3.11743
   C       12.26473       -16.20051        -1.62709
   C       13.34192       -16.80891        -2.17873
   C       13.80020       -18.08189        -1.75639
   C       14.75981       -18.84407        -2.34516
   C       15.41266       -19.94486        -1.56560
   O       15.01785       -20.42137        -0.52980
   C       16.63639       -20.24208        -2.31894
   C       17.73246       -21.03961        -2.17407
   S       18.81732       -20.84164        -3.53015
   C       17.77179       -19.69206        -4.28230
   C       16.66186       -19.47168        -3.52929
   C       15.43591       -18.70020        -3.62171
   C       14.94888       -18.13793        -4.77098
   C       15.72276       -18.10397        -5.95065
   N       16.35450       -18.05667        -6.90681
   C       13.62941       -17.66834        -4.94042
   N       12.54938       -17.34247        -5.14909
  Cl       18.08950       -22.10490        -0.90696
   H        2.50311         5.35314        -0.96202
   H        6.20439         1.79341        -3.56728
   H        4.59557        -1.40021        -1.97067
   H        8.23615         0.14909        -3.71924
   H        8.00540        -4.83126        -2.97354
   H        4.41602        -6.26199        -1.00772
   H        5.65268        -7.45819         0.34653
   H        6.20444        -9.11934         0.65028
   H        4.09701        -8.43957        -1.46357
   H        3.74104        -9.03537         0.16471
   H        4.64471       -10.04107        -0.97056
   H       11.76121        -8.66263        -4.82261
   H       10.92563        -7.22173        -5.44923
   H       10.18429       -10.10781        -6.17579
   H       11.09240        -8.98992        -7.19917
   H        9.41059        -8.64310        -6.79220
   H       11.15424       -10.67614        -3.94676
   H        9.17377       -11.54767        -1.76931
   H       11.67593       -16.69915        -0.86995
   H       13.88525       -16.27757        -2.94635
   H       13.40705       -18.46705        -0.82109
   H       18.05514       -19.25590        -5.21964
*
