# ORCA input file
# SCF done       -183.086151577412          0.000315824301
! CAM-B3LYP def2-SVP def2/J RIJCOSX Grid4 TightSCF
%maxcore 5000
%tddft
    Mode sTDDFT
    Ethresh 5.0
    maxcore 5000
end

%pal
  nprocs 6
  end
* xyz 0 1
   C        0.54948         1.09988        -1.27895
   C       -0.73534         0.95466        -0.83801
   C       -1.17881        -0.14174        -0.06847
   N       -1.58555        -1.01403         0.55613
   C       -1.79216         1.81992        -1.19239
   N       -2.69713         2.45160        -1.50783
   C        1.60465         0.10108        -1.17155
   C        2.60340         0.38246        -2.15135
   C        3.69674        -0.42095        -2.31083
   C        3.84729        -1.55340        -1.47996
   C        2.86150        -1.82944        -0.48768
   C        1.73778        -0.98405        -0.34700
   C        3.02774        -2.95945         0.33893
   C        4.11246        -3.78029         0.19243
   C        5.08167        -3.50868        -0.78526
   C        4.95192        -2.41960        -1.60352
   C        2.24861         1.61348        -2.87596
   O        2.81565         2.13058        -3.80860
   C        1.04343         2.14319        -2.16365
   C        0.68036         3.43622        -2.30699
   C       -0.19429         4.15229        -1.43789
   S       -1.17374         5.50299        -1.97583
   C       -1.75645         5.56768        -0.31528
   N       -1.18445         4.67606         0.44518
   N       -0.34263         3.90192        -0.16680
   C       -2.78270         6.46308         0.09059
   C       -3.19290         6.52278         1.38079
   C       -4.24611         7.27369         1.96522
   N       -5.24778         8.01138         1.36921
   C       -5.54238         8.16986        -0.03544
   C       -6.10186         6.89041        -0.65175
   C       -6.13460         8.54764         2.32235
   O       -7.10186         9.22574         2.03107
   C       -5.60946         8.11787         3.59623
   C       -4.45213         7.34667         3.34062
   C       -3.91090         6.90744         4.61031
   O       -2.94082         6.24571         4.90196
   N       -4.81015         7.43625         5.56289
   C       -4.59120         7.25543         6.97714
   C       -4.03235         8.51648         7.63156
   C       -5.82530         8.14969         4.97427
   C       -6.90183         8.72975         5.68965
   C       -7.90436         9.40970         5.07849
   C       -9.03029         9.94102         5.75696
   S       -9.26366         9.78705         7.47260
   C      -10.78096        10.61404         7.39680
   C      -11.56710        10.71001         8.60130
   O      -12.65903        11.22257         8.70888
   C      -11.08435        10.99714         6.08943
   C      -10.10053        10.59591         5.17666
   C      -12.30779        11.66422         5.68412
   C      -12.82616        12.74098         6.29815
   C      -14.13922        13.34151         6.09013
   C      -14.95583        13.15913         5.00985
   C      -16.22044        13.76909         4.86226
   N      -17.25309        14.23687         4.68465
   C      -14.62761        12.37397         3.88356
   N      -14.41305        11.76001         2.93778
   C      -14.40996        14.18340         7.24584
   C      -13.23821        14.25505         8.05512
   C      -12.16760        13.46154         7.43642
   O      -10.99155        13.45072         7.71660
   C      -13.20837        14.97459         9.21507
   C      -14.37156        15.65808         9.63245
   C      -15.54828        15.58840         8.83066
   C      -15.54885        14.84237         7.63143
   C      -16.70403        16.27376         9.25938
   C      -16.70038        16.99228        10.42337
   C      -15.54180        17.05959        11.21245
   C      -14.40285        16.40751        10.82532
   H        4.43838        -0.19518        -3.06262
   H        1.01130        -1.20749         0.41857
   H        2.27732        -3.16574         1.08773
   H        4.22989        -4.64435         0.82903
   H        5.93159        -4.16680        -0.88634
   H        5.69490        -2.20582        -2.35783
   H        1.13906         3.99413        -3.11505
   H       -3.21092         7.06478        -0.69407
   H       -2.65245         5.91641         2.09746
   H       -4.65234         8.51700        -0.56562
   H       -6.29995         8.95830        -0.08628
   H       -5.40045         6.06474        -0.55928
   H       -6.31522         7.05336        -1.70451
   H       -7.02608         6.61437        -0.15007
   H       -3.86496         6.44255         7.06571
   H       -5.52440         6.94831         7.45810
   H       -3.08684         8.78705         7.16817
   H       -3.86140         8.33644         8.68917
   H       -4.72147         9.35133         7.52526
   H       -6.93282         8.59587         6.76261
   H       -7.88145         9.55608         4.00564
   H      -11.07296        10.23883         9.47268
   H      -10.15491        10.79018         4.12004
   H      -12.81301        11.21539         4.83815
   H      -12.30969        15.01321         9.81241
   H      -16.45610        14.80138         7.04921
   H      -17.59297        16.21917         8.64824
   H      -17.59044        17.51279        10.74372
   H      -15.55724        17.63061        12.12876
   H      -13.50835        16.45584        11.42889
*
