# ORCA input file
# SCF done       -215.959335238744          0.000992310083
! CAM-B3LYP def2-SVP def2/J RIJCOSX Grid4 TightSCF
%maxcore 5000
%tddft
    Mode sTDDFT
    Ethresh 5.0
    maxcore 5000
end

%pal
  nprocs 6
  end
* xyz 0 1
   C        9.42288       -10.17762         7.57176
   C       10.76332        -9.88176         7.75760
   C       11.39939       -10.36412         8.90354
   C       12.77001       -10.07242         9.11257
   N       13.87790        -9.83515         9.27711
   C       10.70627       -11.13518         9.85601
   C       11.37719       -11.61127        11.00749
   N       11.89804       -12.00388        11.94888
   C        9.35547       -11.42937         9.66505
   C        8.74053       -10.94595         8.53048
   C        7.32805       -11.12105         8.11836
   O        6.49966       -11.74824         8.74587
   C        7.18845       -10.38197         6.85047
   C        8.48660        -9.83529         6.49873
   C        8.83425        -9.15470         5.35974
   C       10.13171        -8.66404         5.09640
   N       11.16130        -8.24078         4.81730
   C        7.99065        -8.85100         4.26929
   N        7.39274        -8.56805         3.33010
   C        6.05043       -10.16457         6.10709
   C        4.73778       -10.63276         6.24900
   S        3.56914       -10.06760         5.05978
   C        2.31170       -11.01266         5.77465
   C        2.78517       -11.71875         6.87692
   C        4.12417       -11.50902         7.14032
   C        0.99906       -11.03841         5.25027
   C        0.48449       -10.34534         4.16980
   C       -0.85169       -10.63087         3.91284
   C       -1.39524       -11.55390         4.78999
   S       -0.21859       -12.06297         5.96114
   C       -2.70642       -12.09695         4.79911
   S       -3.16716       -13.28960         5.97566
   C       -4.75776       -13.43685         5.28596
   C       -4.89845       -12.58124         4.20871
   C       -3.75614       -11.83353         3.93747
   C       -5.65523       -14.38330         5.84908
   C       -6.88318       -14.69031         5.37103
   C       -7.72074       -15.69848         5.92848
   S       -9.21311       -16.12148         5.10817
   C       -9.54239       -17.37379         6.26620
   C       -8.53762       -17.42608         7.25305
   C       -7.52377       -16.47272         7.04527
   C       -8.66457       -18.39700         8.26876
   C       -9.74102       -19.29463         8.21971
   S       -9.69898       -20.37290         9.58457
   C       -8.26589       -19.62021        10.18223
   C       -7.82953       -18.61013         9.39931
   C      -10.72198       -19.25210         7.20503
   C      -10.61519       -18.25165         6.24369
   C      -11.79360       -20.21626         7.13550
   S      -13.30216       -19.81216         6.36710
   C      -13.93097       -21.40852         6.65685
   C      -12.99992       -22.18909         7.30473
   C      -11.80692       -21.51821         7.57775
   C      -15.23882       -21.78083         6.24802
   C      -16.23015       -20.99097         5.70218
   C      -17.40632       -21.68637         5.43255
   C      -17.33865       -23.02691         5.75609
   S      -15.77591       -23.42556         6.41866
   C      -18.33272       -24.02419         5.61048
   S      -19.93711       -23.64359         5.07708
   C      -20.42116       -25.31948         5.17952
   C      -19.35901       -26.10426         5.60736
   C      -18.20191       -25.38401         5.85260
   C      -21.75169       -25.68304         4.89787
   C      -22.21646       -26.96539         4.82482
   C      -23.54730       -27.32990         4.54969
   C      -24.71444       -26.61859         4.67328
   C      -25.90187       -27.08489         3.91794
   O      -26.02582       -28.12821         3.31820
   C      -26.88816       -25.98185         4.01498
   C      -28.11503       -25.86500         3.39852
   C      -28.85486       -24.70156         3.62054
   C      -28.34165       -23.68502         4.44809
   C      -27.10132       -23.81981         5.07626
   C      -26.37755       -24.97930         4.86131
   C      -25.08322       -25.42292         5.39025
   C      -24.50379       -24.91441         6.52623
   C      -23.39233       -25.48769         7.17396
   N      -22.51123       -25.92912         7.76238
   C      -24.99696       -23.79908         7.23332
   N      -25.34427       -22.88406         7.83321
   C      -29.09439       -22.50116         4.64517
   N      -29.69298       -21.53840         4.80563
   C      -30.11975       -24.54061         3.00626
   N      -31.14027       -24.42844         2.49874
   H       11.33066        -9.29343         7.05477
   H        8.80586       -12.01814        10.38375
   H        6.17304        -9.51399         5.24943
   H        2.14867       -12.36548         7.45502
   H        4.65871       -11.96874         7.95080
   H        1.07775        -9.65778         3.59307
   H       -1.41235       -10.18720         3.11086
   H       -5.80487       -12.50445         3.63645
   H       -3.68686       -11.12258         3.13427
   H       -5.28033       -14.90894         6.71611
   H       -7.26476       -14.18426         4.49587
   H       -6.67413       -16.36793         7.69408
   H       -7.83286       -19.98954        11.09098
   H       -6.95355       -18.02470         9.61054
   H      -11.35495       -18.18169         5.46115
   H      -13.18865       -23.21421         7.57024
   H      -10.96743       -21.98880         8.05462
   H      -16.09187       -19.94071         5.51639
   H      -18.28962       -21.24044         5.01064
   H      -19.44118       -27.16531         5.75375
   H      -17.27915       -25.81562         6.19820
   H      -22.42948       -24.86674         4.68136
   H      -21.50732       -27.77716         4.90033
   H      -23.68758       -28.31358         4.10984
   H      -28.49259       -26.65034         2.76152
   H      -26.73746       -23.01871         5.70002
*
