# ORCA input file
# SCF done       -208.341255381144          0.000710268300
! CAM-B3LYP def2-SVP def2/J RIJCOSX Grid4 TightSCF
%maxcore 5000
%tddft
    Mode sTDDFT
    Ethresh 5.0
    maxcore 5000
end

%pal
  nprocs 6
  end
* xyz 0 1
   C       -1.83339        -6.91870        -1.68612
   C       -0.46778        -6.79915        -1.89818
   C       -0.02277        -5.87992        -2.85027
   C        1.35877        -5.66667        -3.06857
   N        2.46423        -5.44076        -3.27035
   C       -0.92928        -5.09690        -3.59480
   C       -0.42252        -4.12166        -4.47714
   N        0.00003        -3.30481        -5.16180
   C       -2.30318        -5.25340        -3.41332
   C       -2.72223        -6.15429        -2.45894
   C       -4.11456        -6.43665        -2.04090
   O       -5.08877        -6.01696        -2.63972
   C       -4.01165        -7.32875        -0.87853
   C       -2.62017        -7.70748        -0.73336
   C       -2.07464        -8.63877         0.11770
   C       -0.69227        -8.89999         0.20372
   N        0.42358        -9.14910         0.31304
   C       -2.77494        -9.49399         0.99359
   N       -3.25220       -10.25940         1.70512
   C       -4.98936        -7.75402         0.00835
   C       -6.34246        -7.41639         0.14627
   C       -7.03078        -6.47522        -0.60307
   C       -8.35058        -6.12879        -0.43577
   C       -9.20982        -6.74726         0.57212
   C       -8.76800        -7.69521         1.43315
   S       -7.16157        -8.29474         1.45467
   C      -10.47964        -6.13384         0.39630
   C      -10.42672        -5.19090        -0.64352
   C      -11.67639        -4.55988        -0.84393
   C      -12.61725        -5.02337         0.01696
   S      -12.03702        -6.24043         1.10779
   C       -9.09960        -5.16637        -1.17752
   C       -8.50622        -4.40033        -2.18996
   C       -9.02230        -3.45156        -3.02507
   C       -8.18383        -2.79203        -3.94877
   S       -6.46043        -3.15465        -3.95633
   C       -6.23026        -2.03439        -5.22169
   C       -7.41281        -1.40696        -5.63301
   C       -8.51282        -1.83461        -4.90957
   C       -7.12261        -0.42939        -6.75414
   C       -7.85144        -0.82677        -8.04061
   C       -7.48108         1.00247        -6.34766
   C       -5.62341        -0.59874        -6.89649
   C       -5.15474        -1.54569        -5.97924
   S       -3.46501        -1.78419        -6.05539
   C       -3.35540        -0.59371        -7.34328
   C       -4.60375        -0.06782        -7.66934
   C       -2.09139        -0.26190        -7.87944
   C       -0.94783        -0.79541        -7.37472
   C        0.39451        -0.52112        -7.72616
   C        1.40472        -1.04635        -6.94035
   C        2.75311        -0.79305        -7.10019
   C        3.25573         0.02920        -8.19477
   C        2.45318         0.62177        -9.11052
   S        0.73992         0.50833        -9.09880
   C        4.66652         0.07912        -8.00501
   C        5.02390        -0.60787        -6.84165
   C        6.41733        -0.56435        -6.61724
   C        7.06184         0.13912        -7.58536
   S        6.01539         0.77843        -8.80429
   C        3.83159        -1.15929        -6.24550
   C        3.62545        -1.76385        -5.00607
   C        4.52630        -1.89810        -3.97106
   C        4.20472        -2.36651        -2.69979
   C        2.98121        -2.57873        -2.07525
   C        2.96969        -3.48423        -0.91241
   O        3.91673        -3.94550        -0.31472
   C        1.53291        -3.72831        -0.61143
   C        0.97737        -4.57779         0.31971
   C       -0.41552        -4.64321         0.39787
   C       -1.21078        -3.83627        -0.44001
   C       -0.63193        -2.97065        -1.37176
   C        0.74895        -2.93119        -1.46546
   C        1.64243        -2.13520        -2.31662
   C        1.21457        -1.02625        -3.02275
   C        2.07995        -0.03255        -3.51303
   N        2.72735         0.84465        -3.87554
   C       -0.12913        -0.72640        -3.29641
   N       -1.20641        -0.46771        -3.60721
   C       -2.61740        -3.94761        -0.34743
   N       -3.75492        -4.07358        -0.27604
   C       -1.05634        -5.53810         1.28323
   N       -1.59700        -6.28607         1.96287
   H        0.25902        -7.37259        -1.34599
   H       -3.01538        -4.66983        -3.97683
   H       -4.64453        -8.44959         0.76391
   H       -6.46438        -5.99157        -1.38230
   H       -9.40492        -8.14536         2.17876
   H      -11.87537        -3.80424        -1.58129
   H      -13.64493        -4.72527         0.08995
   H       -7.45108        -4.60205        -2.32370
   H      -10.06738        -3.17869        -3.01104
   H       -9.52129        -1.48816        -5.05023
   H       -8.92714        -0.76897        -7.89391
   H       -7.59209        -1.84462        -8.32300
   H       -7.57134        -0.15792        -8.85066
   H       -8.55126         1.08486        -6.17444
   H       -7.19847         1.69673        -7.13513
   H       -6.95730         1.27802        -5.43523
   H       -4.72703         0.67720        -8.43503
   H       -2.06424         0.46041        -8.68462
   H       -1.04520        -1.49299        -6.55157
   H        1.08334        -1.68672        -6.13364
   H        2.83632         1.23880        -9.90776
   H        6.93132        -1.02868        -5.79627
   H        8.11400         0.33074        -7.66601
   H        2.63159        -2.15597        -4.83875
   H        5.56216        -1.64868        -4.14659
   H        5.04123        -2.67630        -2.07965
   H        1.59982        -5.18187         0.96197
   H       -1.27143        -2.36816        -1.99775
*
