# ORCA input file
# SCF done       -175.982719113921          0.000770812708
! CAM-B3LYP def2-SVP def2/J RIJCOSX Grid4 TightSCF
%maxcore 5000
%tddft
    Mode sTDDFT
    Ethresh 5.0
    maxcore 5000
end

%pal
  nprocs 6
  end
* xyz 0 1
   C       11.03310        -9.09204        11.67140
   S        9.50992        -9.78659        12.02898
   C        8.70045        -8.73273        10.90168
   C        9.61395        -7.88838        10.29023
   C       10.93839        -8.10187        10.73681
   S       12.38916        -7.24457        10.22302
   C       11.94709        -6.03760         9.01386
   O       12.83528        -5.36438         8.56819
   C       10.53245        -5.81557         8.52134
   O       10.32914        -4.97813         7.68492
   S        9.11613        -6.70394         9.09309
   C        7.29316        -8.83616        10.74056
   S        6.38770        -7.82374         9.65086
   C        4.89619        -8.59985        10.10311
   C        5.11728        -9.58407        11.04450
   C        6.45657        -9.71549        11.39960
   C        3.66666        -8.19779         9.52236
   C        3.45590        -7.22888         8.56404
   C        2.11782        -7.08051         8.20766
   C        1.26944        -7.93276         8.88788
   S        2.16147        -8.93945         9.99182
   C       -0.14040        -8.04088         8.76141
   S       -1.06483        -9.14293         9.73957
   C       -2.55545        -8.66187         8.97544
   C       -2.31188        -7.69302         8.01935
   C       -0.96934        -7.34621         7.90117
   C       -3.77376        -9.26964         9.37754
   C       -4.98115        -9.03582         8.80755
   C       -6.20097        -9.64316         9.20171
   N       -7.36847        -9.38753         8.50709
   C       -8.37868       -10.09407         9.07746
   C       -9.73761       -10.38230         8.99395
   C      -10.01095       -11.26916        10.04098
   N       -8.84705       -11.51253        10.74594
   C       -7.83494       -10.81061        10.17224
   C       -6.47374       -10.53048        10.24870
   C      -11.23090       -11.88442        10.42349
   C      -12.40620       -11.75069         9.76186
   C      -13.63157       -12.35843        10.14150
   S      -15.03918       -12.13310         9.13928
   C      -16.02071       -13.10068        10.20010
   C      -15.27204       -13.55985        11.26683
   C      -13.94267       -13.14810        11.23298
   C      -17.39510       -13.33319         9.93020
   C      -18.30778       -14.03014        10.69841
   C      -19.58524       -14.06908        10.14488
   C      -19.68349       -13.40579         8.93763
   S      -18.14809       -12.71887         8.48860
   C      -20.82874       -13.25344         8.11231
   S      -20.74403       -12.42447         6.58998
   C      -22.44190       -12.68544         6.29123
   C      -23.01322       -13.38384         7.33926
   C      -22.11568       -13.70181         8.35300
   C      -23.02257       -12.19395         5.09483
   C      -24.32944       -12.29876         4.75875
   C      -24.88045       -11.79664         3.55105
   S      -23.92195       -11.00860         2.33089
   C      -25.29281       -10.76260         1.33434
   C      -26.43583       -11.25568         1.89762
   C      -26.20975       -11.84601         3.15880
   S      -27.42162       -12.58890         4.19215
   C      -29.00314       -12.43830         3.42705
   O      -29.93828       -12.88982         4.03176
   C      -29.24588       -11.79503         2.07509
   O      -30.36703       -11.74569         1.64873
   S      -27.97594       -11.11502         1.05407
   H       11.91985        -9.43917        12.16013
   H        4.32164       -10.18156        11.45242
   H        6.82261       -10.42850        12.11724
   H        4.26080        -6.65273         8.14256
   H        1.77263        -6.37191         7.47753
   H       -3.08844        -7.24533         7.42622
   H       -0.60433        -6.61104         7.20701
   H       -3.70294        -9.97509        10.19258
   H       -5.04669        -8.34391         7.97798
   H       -7.43348        -8.78481         7.70523
   H      -10.44808       -10.00940         8.28491
   H       -8.78020       -12.12467        11.54046
   H       -5.76250       -10.90239        10.95755
   H      -11.19024       -12.50569        11.30864
   H      -12.44041       -11.14379         8.86881
   H      -15.68333       -14.17828        12.04406
   H      -13.22526       -13.41520        11.98755
   H      -18.05199       -14.49264        11.63409
   H      -20.41715       -14.56781        10.60781
   H      -24.05284       -13.65569         7.36366
   H      -22.38811       -14.24078         9.24206
   H      -22.34985       -11.69419         4.40863
   H      -25.03163       -12.78344         5.42194
   H      -25.19762       -10.27125         0.38815
*
