# ORCA input file
# SCF done       -181.764406795100          0.000776366582
! CAM-B3LYP def2-SVP def2/J RIJCOSX Grid4 TightSCF
%maxcore 5000
%tddft
    Mode sTDDFT
    Ethresh 5.0
    maxcore 5000
end

%pal
  nprocs 6
  end
* xyz 0 1
   C        2.08036       -15.24532         5.59239
   C        2.44790       -14.00156         6.07670
   C        2.38529       -12.80088         5.25807
   N        2.76558       -11.64608         5.79501
   C        3.18815       -11.59240         7.04917
   C        3.23722       -12.77059         7.85015
   N        2.87551       -13.92734         7.35934
   C        3.68466       -12.66882         9.19155
   N        4.05856       -12.50829        10.26279
   C        3.57468       -10.31893         7.49794
   N        3.87903        -9.24747         7.78265
   C        1.92614       -12.84320         3.90323
   C        1.55828       -14.13334         3.44681
   C        1.63677       -15.31616         4.27556
   N        1.24105       -16.41009         3.62154
   S        0.81459       -16.00422         2.12591
   N        1.10907       -14.41842         2.22842
   C        1.82052       -11.71400         3.03797
   C        2.19281       -10.42699         3.40618
   C        2.09636        -9.29585         2.62365
   C        1.56842        -9.34192         1.26750
   C        1.15382       -10.48575         0.67896
   S        1.17567       -12.03283         1.42517
   C        1.61887        -8.00086         0.79779
   C        2.14874        -7.16009         1.78375
   C        2.19244        -5.81558         1.33957
   C        1.71795        -5.68260         0.07511
   S        1.19357        -7.17029        -0.63972
   C        2.46730        -7.95084         2.94472
   C        3.04343        -7.55182         4.15998
   C        3.48883        -6.28638         4.44549
   C        4.10949        -5.85710         5.62991
   N        4.33885        -6.62713         6.74820
   C        4.99997        -5.87095         7.65743
   C        5.57477        -5.89631         8.91308
   C        6.12418        -4.60942         9.10954
   N        5.87461        -3.82423         8.00515
   C        5.19681        -4.56517         7.09881
   C        4.63507        -4.55739         5.83789
   C        6.86699        -4.08655        10.18450
   C        7.19761        -4.76362        11.32225
   C        7.99670        -4.25902        12.37684
   C        8.60229        -3.01241        12.39302
   C        9.41263        -2.53622        13.40788
   C        9.70975        -3.33205        14.59679
   C        9.22344        -4.57539        14.81289
   S        8.19506        -5.38937        13.70902
   C       10.57248        -2.52165        15.38665
   C       10.81018        -1.30086        14.75058
   C       11.67128        -0.47852        15.51317
   C       12.04992        -1.08121        16.67062
   S       11.38617        -2.66319        16.89158
   C       10.08691        -1.28250        13.50120
   C       10.00590        -0.28351        12.52725
   C       10.63259         0.93674        12.56633
   C       10.55612         1.95808        11.59894
   C        9.81109         1.93340        10.37974
   C        9.81633         3.07433         9.47693
   N        9.09566         3.03047         8.32971
   C        8.41140         1.95498         8.05334
   C        8.41238         0.82766         8.93726
   N        9.10437         0.85150        10.06488
   C        7.67905        -0.32381         8.61569
   N        7.07493        -1.26070         8.33096
   C        7.64622         1.87880         6.86198
   N        7.00810         1.74144         5.91997
   C       10.53763         4.22530         9.74217
   C       11.27775         4.27061        10.92200
   C       11.28664         3.15365        11.83772
   N       12.04930         3.39131        12.90261
   S       12.68931         4.86349        12.76832
   N       12.03671         5.27910        11.35847
   H        2.13910       -16.11714         6.22005
   H        2.58695       -10.32650         4.40557
   H        0.77329       -10.50836        -0.33046
   H        2.54331        -4.97409         1.90743
   H        1.63738        -4.78273        -0.50269
   H        3.15936        -8.32183         4.91120
   H        3.39724        -5.52243         3.69008
   H        4.06540        -7.59067         6.90420
   H        5.61242        -6.71357         9.60333
   H        6.19277        -2.86409         7.92203
   H        4.59713        -3.75533         5.12843
   H        7.19584        -3.06541        10.05052
   H        6.83814        -5.77570        11.44584
   H        8.43184        -2.37626        11.53727
   H        9.45294        -5.14524        15.69916
   H       12.00524         0.50517        15.23989
   H       12.69511        -0.68893        17.43226
   H        9.39028        -0.49505        11.66622
   H       11.25893         1.18405        13.41013
   H       10.51999         5.05145         9.05280
*
