# ORCA input file
# SCF done       -178.120985581136          0.000872753492
! CAM-B3LYP def2-SVP def2/J RIJCOSX Grid4 TightSCF
%maxcore 5000
%tddft
    Mode sTDDFT
    Ethresh 5.0
    maxcore 5000
end

%pal
  nprocs 6
  end
* xyz 0 1
   C       -7.71473         0.06228        -0.09012
   S       -8.45188         0.79931         1.26655
   C       -9.85014         1.19553         0.37427
   C       -9.76015         0.77921        -0.93344
   C       -8.50922         0.12285        -1.20963
   C       -8.23435        -0.39603        -2.51717
   C       -9.20070        -0.20660        -3.48949
   C      -10.43194         0.44156        -3.20275
   C      -10.71974         0.91955        -1.96579
   O       -9.03491        -0.56708        -4.78709
   C       -6.96081        -1.04089        -2.76215
   C       -6.75160        -2.09776        -3.57430
   C       -5.48042        -2.70621        -3.80716
   S       -5.39405        -4.12769        -4.81086
   C       -3.67210        -4.23615        -4.60489
   C       -3.21485        -3.21262        -3.80073
   C       -4.22491        -2.35813        -3.35763
   C       -2.92099        -5.27723        -5.21572
   C       -1.57196        -5.53787        -5.09988
   C       -1.15592        -6.64993        -5.83222
   C       -2.17480        -7.26400        -6.52770
   S       -3.68618        -6.44053        -6.26223
   C       -2.10973        -8.40333        -7.36984
   S       -0.61470        -9.26981        -7.59826
   C       -1.38110       -10.40136        -8.68499
   C       -2.71796       -10.09153        -8.83615
   C       -3.12561        -8.97989        -8.10093
   C       -0.67520       -11.46688        -9.29873
   C        0.62840       -11.75845        -9.07614
   C        1.34973       -12.81358        -9.69108
   N        2.66591       -13.06148        -9.35006
   C        3.11519       -14.11404       -10.08258
   C        4.21740       -14.93031       -10.32485
   C        3.81718       -15.84083       -11.30768
   N        2.50407       -15.58476       -11.65676
   C        2.05239       -14.53874       -10.91665
   C        0.94790       -13.72816       -10.67006
   C        4.53411       -16.89380       -11.93354
   C        5.79296       -17.27937       -11.61409
   C        6.50341       -18.33274       -12.24896
   S        8.06215       -18.81109       -11.63087
   C        8.22892       -20.04616       -12.84423
   C        7.12573       -20.05942       -13.67477
   C        6.16514       -19.10745       -13.34171
   C        9.36995       -20.89046       -12.89756
   C        9.65887       -21.86851       -13.82708
   C       10.86157       -22.53013       -13.58257
   C       11.52133       -22.07746       -12.46061
   S       10.62626       -20.79365       -11.69489
   C       12.75162       -22.53413       -11.92151
   S       13.64882       -23.81352       -12.68905
   C       14.89146       -23.74528       -11.46661
   C       14.59687       -22.77144       -10.53448
   C       13.40345       -22.09670       -10.78796
   C       15.99893       -24.63162       -11.56148
   C       17.01440       -24.70058       -10.67177
   C       18.11961       -25.60020       -10.75646
   S       18.71364       -26.23966        -9.24816
   C       19.75857       -27.33124       -10.02963
   C       19.70685       -27.20495       -11.39950
   C       18.79359       -26.18179       -11.83238
   C       18.73852       -25.83522       -13.21600
   C       19.49336       -26.58342       -14.10205
   C       20.31753       -27.65385       -13.66602
   C       20.44573       -27.95057       -12.34945
   O       19.55900       -26.31525       -15.42980
   C       18.03950       -24.62795       -13.66312
   C       17.29240       -24.51430       -14.75660
   H       -6.74427        -0.37607         0.02384
   H      -10.66332         1.70612         0.84962
   H      -11.12597         0.54019        -4.02217
   H      -11.65856         1.40790        -1.75593
   H       -8.12936        -0.87565        -4.92964
   H       -6.12484        -0.64108        -2.20391
   H       -7.58479        -2.59256        -4.05882
   H       -2.17764        -3.08885        -3.54684
   H       -4.04006        -1.50719        -2.72705
   H       -0.91036        -4.94082        -4.49894
   H       -0.14157        -7.00704        -5.86400
   H       -3.37527       -10.66533        -9.46530
   H       -4.12935        -8.59196        -8.09375
   H       -1.25271       -12.07162        -9.98359
   H        1.17918       -11.14629        -8.37125
   H        3.18235       -12.53927        -8.66361
   H        5.18550       -14.88376        -9.86928
   H        1.98330       -16.11097       -12.33672
   H       -0.01920       -13.77380       -11.12801
   H        4.00593       -17.41996       -12.71825
   H        6.31237       -16.77479       -10.81244
   H        7.02267       -20.74564       -14.49595
   H        5.24847       -18.98204       -13.88915
   H        9.01610       -22.09276       -14.65882
   H       11.25144       -23.32182       -14.19818
   H       15.22925       -22.55539        -9.69246
   H       13.01082       -21.30829       -10.16961
   H       15.99920       -25.29276       -12.41537
   H       16.96319       -24.11443        -9.76335
   H       20.35333       -28.01284        -9.45524
   H       20.86578       -28.18720       -14.42622
   H       21.10708       -28.73189       -12.00885
   H       19.05814       -25.50793       -15.62156
   H       18.19186       -23.76163       -13.03028
   H       17.03514       -25.35776       -15.37891
   H       16.84561       -23.57421       -15.03275
*
