# ORCA input file
# SCF done       -225.261420823938          0.000975910197
! CAM-B3LYP def2-SVP def2/J RIJCOSX Grid4 TightSCF
%maxcore 5000
%tddft
    Mode sTDDFT
    Ethresh 5.0
    maxcore 5000
end

%pal
  nprocs 6
  end
* xyz 0 1
   C       -7.26131         2.14997         5.53289
   C       -6.10189         2.74902         6.00157
   C       -4.85131         2.31675         5.58226
   C       -4.72410         1.27491         4.67634
   C       -5.87514         0.66692         4.20251
   C       -7.15021         1.10148         4.63268
   C       -8.17037         0.28113         3.99413
   C       -9.52148         0.48888         4.04402
   C      -10.13330         1.54725         4.74920
   N      -10.69236         2.38681         5.29681
   C      -10.48750        -0.28570         3.36699
   N      -11.32638        -0.86892         2.84303
   C       -7.46618        -0.79481         3.29959
   C       -6.05647        -0.41292         3.24669
   C       -5.15169        -0.81017         2.30064
   C       -5.47196        -1.64502         1.20897
   N       -5.69030        -2.25507         0.26182
   C       -3.81742        -0.35714         2.25329
   N       -2.71845        -0.03346         2.18429
   C       -8.02640        -1.97055         2.90975
   C       -7.34338        -3.19713         2.59672
   C       -7.90710        -4.06292         1.64517
   C       -7.26806        -5.23793         1.34027
   C       -6.11016        -5.61943         2.04547
   C       -5.56781        -4.78850         3.01820
   C       -6.17421        -3.57849         3.27233
   C       -5.73287        -6.94819         1.62770
   C       -6.65603        -7.39089         0.66386
   C       -7.63879        -6.29226         0.32529
   C       -9.09918        -6.74784         0.44134
   C       -9.42365        -7.31090         1.82032
   C       -7.30111        -5.81640        -1.10998
   C       -7.96891        -4.51918        -1.54493
   C       -6.57155        -8.65930         0.14888
   C       -5.56218        -9.52718         0.59362
   C       -4.62984        -9.05989         1.53287
   C       -4.70778        -7.78434         2.04945
   C       -5.51649       -10.88630         0.11994
   S       -6.80241       -11.49667        -0.90895
   C       -6.08660       -13.05303        -0.91038
   C       -4.91033       -13.09631        -0.16936
   C       -4.59091       -11.87121         0.40750
   C       -4.32616       -14.48997        -0.17109
   C       -2.96423       -14.51941        -0.87142
   C       -4.21752       -15.05361         1.24763
   C       -5.37099       -15.22344        -0.98059
   C       -6.36589       -14.34777        -1.41042
   S       -7.57941       -15.13625        -2.32781
   C       -6.76481       -16.67563        -2.10785
   C       -5.59934       -16.53638        -1.37304
   C       -7.37499       -17.84956        -2.63373
   C       -7.00064       -19.10925        -2.32947
   C       -7.64111       -20.31763        -2.78836
   C       -7.40635       -21.50587        -2.07743
   C       -8.04282       -22.66219        -2.45105
   C       -8.90425       -22.67731        -3.56292
   C       -9.12261       -21.51544        -4.29234
   C       -8.49831       -20.35073        -3.89773
   C       -9.43207       -24.01266        -3.71887
   C       -8.90418       -24.82194        -2.69371
   C       -7.97331       -24.02755        -1.80973
   C       -6.54391       -24.60170        -1.85226
   C       -5.93610       -24.58219        -3.24963
   C       -8.47452       -23.99083        -0.35390
   C       -9.88902       -23.43746        -0.22832
   C       -9.25253       -26.14217        -2.59487
   C      -10.14011       -26.69596        -3.53494
   C      -10.68967       -25.86912        -4.52637
   C      -10.33119       -24.54235        -4.63537
   C      -10.55389       -28.07063        -3.46676
   C       -9.85144       -29.12619        -2.97275
   C      -10.44054       -30.39501        -2.54883
   C      -11.65178       -30.91056        -2.91977
   C      -12.53963       -30.31562        -3.84172
   N      -13.30413       -29.89588        -4.58841
   C      -12.15785       -32.14623        -2.46280
   N      -12.62533       -33.13974        -2.12870
   C       -9.47960       -31.02009        -1.64955
   C       -8.28033       -30.27119        -1.66655
   C       -7.20119       -30.64525        -0.88263
   C       -7.32576       -31.76809        -0.07889
   C       -8.49993       -32.50815        -0.06430
   C       -9.58552       -32.14574        -0.84741
   C       -8.43604       -29.17957        -2.61323
   C       -7.42287       -28.50723        -3.24026
   C       -6.06608       -28.60420        -2.87253
   N       -4.95471       -28.61849        -2.58563
   C       -7.61618       -27.68708        -4.37185
   N       -7.70248       -27.06849        -5.33442
   H       -8.22345         2.49574         5.87337
   H       -6.17648         3.56267         6.70673
   H       -3.96376         2.79564         5.96661
   H       -3.74802         0.94229         4.36172
   H       -9.10662        -2.03149         2.88416
   H       -8.82041        -3.77116         1.14996
   H       -4.69254        -5.08866         3.57436
   H       -5.77878        -2.93565         4.04657
   H       -9.29036        -7.51068        -0.31602
   H       -9.75631        -5.90205         0.23690
   H       -8.79921        -8.17418         2.04022
   H      -10.46537        -7.61990         1.86353
   H       -9.25497        -6.56146         2.59079
   H       -7.57818        -6.61995        -1.79634
   H       -6.21840        -5.68339        -1.17350
   H       -9.05038        -4.57356        -1.45009
   H       -7.73233        -4.32942        -2.58950
   H       -7.59752        -3.68225        -0.96017
   H       -7.28356        -9.00808        -0.58511
   H       -3.84435        -9.71601         1.87264
   H       -3.98720        -7.44818         2.77991
   H       -3.72148       -11.70414         1.01634
   H       -2.24500       -13.92237        -0.31594
   H       -3.04861       -14.11600        -1.87806
   H       -2.59823       -15.54128        -0.93508
   H       -3.51768       -14.46208         1.83290
   H       -3.86581       -16.08192         1.21568
   H       -5.18819       -15.03170         1.73815
   H       -4.95144       -17.36285        -1.14538
   H       -8.22910       -17.67868        -3.27442
   H       -6.18665       -19.25500        -1.63174
   H       -6.74105       -21.49091        -1.22571
   H       -9.77240       -21.52204        -5.15451
   H       -8.65969       -19.44800        -4.46641
   H       -6.56749       -25.62872        -1.47967
   H       -5.91300       -24.02050        -1.17629
   H       -6.56551       -25.11675        -3.95737
   H       -4.95828       -25.05785        -3.23556
   H       -5.81900       -23.56046        -3.60335
   H       -7.79200       -23.37405         0.23431
   H       -8.44188       -25.00371         0.05391
   H       -9.93693       -22.41844        -0.60566
   H      -10.19785       -23.43320         0.81445
   H      -10.59295       -24.04488        -0.79317
   H       -8.88487       -26.74833        -1.77882
   H      -11.38083       -26.30138        -5.23467
   H      -10.74806       -23.92670        -5.41748
   H      -11.56912       -28.25537        -3.79308
   H       -6.28678       -30.07385        -0.88353
   H       -6.49716       -32.06806         0.54425
   H       -8.57344       -33.37954         0.56824
   H      -10.49024       -32.73047        -0.82005
*
