# ORCA input file
# SCF done       -190.934263801238          0.000502775197
! CAM-B3LYP def2-SVP def2/J RIJCOSX Grid4 TightSCF
%maxcore 5000
%tddft
    Mode sTDDFT
    Ethresh 5.0
    maxcore 5000
end

%pal
  nprocs 6
  end
* xyz 0 1
   C        0.37422        -1.46665         5.87170
   C        1.60053        -1.62895         6.46250
   O        2.08105        -0.77505         7.40707
   C        1.28339         0.31554         7.80221
   C        2.47004        -2.73917         6.14602
   O        3.69288        -2.88668         6.72093
   C        4.49781        -1.77020         7.04694
   C        2.06927        -3.75196         5.27648
   C        0.79204        -3.58678         4.67723
   C       -0.03846        -2.44616         4.95755
   N       -1.13686        -2.56980         4.23888
   O       -1.00259        -3.70978         3.55293
   N        0.14997        -4.33363         3.80495
   C        2.84701        -4.91228         4.94098
   S        2.25700        -6.00360         3.71862
   C        3.65066        -7.02677         3.89175
   C        4.50709        -6.53316         4.85525
   C        4.05398        -5.35389         5.44298
   C        3.80589        -8.20375         3.10901
   C        4.88177        -9.06628         3.06685
   C        4.70665       -10.13205         2.18507
   C        3.49092       -10.11261         1.53514
   S        2.54833        -8.73352         2.02850
   C        2.98338       -11.04162         0.59088
   S        3.94688       -12.38819         0.04620
   C        2.65650       -12.95840        -0.98286
   C        1.55978       -12.12570        -0.88222
   C        1.74247       -11.05526        -0.00845
   C        2.77809       -14.12351        -1.78218
   C        3.90231       -14.87106        -1.88541
   C        4.04297       -16.04745        -2.66553
   N        5.26128       -16.69492        -2.74518
   C        5.12267       -17.78885        -3.53880
   C        5.79688       -18.87968        -4.08090
   C        4.85168       -19.58645        -4.83126
   N        3.63239       -18.93950        -4.75077
   C        3.77409       -17.83745        -3.96853
   C        3.09992       -16.74678        -3.42562
   C        4.98443       -20.78758        -5.57511
   C        6.14207       -21.47103        -5.74613
   C        6.26919       -22.69302        -6.45774
   S        7.84749       -23.41693        -6.63390
   C        7.18844       -24.76841        -7.51178
   C        5.82226       -24.63810        -7.64778
   C        5.31040       -23.48162        -7.06383
   C        8.01902       -25.81949        -7.97761
   C        9.39146       -25.92448        -7.90107
   C        9.89129       -27.10125        -8.45744
   C        8.91184       -27.92773        -8.96816
   S        7.33522       -27.21851        -8.75686
   C        9.06725       -29.19676        -9.58883
   S        7.68626       -30.14589       -10.05296
   C        8.70486       -31.42116       -10.66342
   C       10.03594       -31.09206       -10.50303
   C       10.24194       -29.85255        -9.90033
   C        8.18056       -32.61390       -11.23245
   C        6.86219       -32.89761       -11.29460
   C        6.23588       -34.06623       -11.84574
   C        6.82454       -35.02609       -12.66469
   O        8.13987       -34.84958       -12.96254
   C        8.65594       -35.20874       -14.22982
   C        6.08450       -36.17734       -13.13123
   O        6.81621       -37.07704       -13.84381
   C        6.18272       -38.24126       -14.31713
   C        4.75464       -36.35557       -12.85115
   C        4.12095       -35.38353       -12.06255
   C        4.85722       -34.25689       -11.55429
   N        4.01903       -33.52686       -10.84854
   O        2.84020       -34.14888       -10.90879
   N        2.87876       -35.27269       -11.63467
   H       -0.28133        -0.64399         6.09236
   H        1.86063         0.83519         8.56536
   H        0.33281        -0.01798         8.22893
   H        1.09085         0.99538         6.96666
   H        4.40650        -0.97415         6.30599
   H        5.52186        -2.14675         7.04563
   H        4.25840        -1.37647         8.03646
   H        5.42645        -7.01708         5.13055
   H        4.58257        -4.84251         6.22330
   H        5.76899        -8.92271         3.65634
   H        5.43619       -10.90501         2.01825
   H        0.65316       -12.29733        -1.43522
   H        0.99926       -10.30456         0.19592
   H        1.89321       -14.40096        -2.33737
   H        4.77944       -14.55623        -1.33184
   H        6.10031       -16.38317        -2.28774
   H        6.82637       -19.14667        -3.95591
   H        2.79231       -19.25094        -5.20639
   H        2.06895       -16.48240        -3.54462
   H        4.07639       -21.16666        -6.02572
   H        7.05236       -21.08058        -5.31485
   H        5.22557       -25.37274        -8.16002
   H        4.26558       -23.22955        -7.07589
   H       10.00237       -25.16115        -7.45213
   H       10.93675       -27.34928        -8.48198
   H       10.83332       -31.74355       -10.81498
   H       11.21389       -29.43984        -9.69924
   H        8.91238       -33.31289       -11.60679
   H        6.15962       -32.19718       -10.85909
   H        7.92907       -35.03895       -15.02600
   H        8.98145       -36.25059       -14.25027
   H        9.51702       -34.55687       -14.38481
   H        5.79117       -38.84648       -13.49428
   H        6.95622       -38.80018       -14.84150
   H        5.37262       -38.00219       -15.01274
   H        4.19084       -37.20567       -13.19044
*
