# ORCA input file
# SCF done       -207.813995443988          0.000497028441
! CAM-B3LYP def2-SVP def2/J RIJCOSX Grid4 TightSCF
%maxcore 5000
%tddft
    Mode sTDDFT
    Ethresh 5.0
    maxcore 5000
end

%pal
  nprocs 6
  end
* xyz 0 1
   C        4.64204        -3.92888        -1.12621
   C        3.61167        -3.07578        -0.84594
   C        2.40531        -3.45520        -0.22426
   N        1.41283        -3.67167         0.31046
   C        3.64067        -1.69294        -1.12098
   N        3.59665        -0.56859        -1.34692
   C        5.97739        -3.52849        -1.56174
   C        6.87274        -4.59020        -1.33495
   C        8.21605        -4.48301        -1.63371
   C        8.67727        -3.29275        -2.18248
   C        7.79068        -2.23662        -2.42336
   C        6.43986        -2.34414        -2.11127
  Cl        8.37183        -0.77817        -3.11910
  Cl       10.34125        -3.12176        -2.57086
   C        6.13591        -5.75073        -0.78914
   O        6.58392        -6.81482        -0.43390
   C        4.70386        -5.34748        -0.82975
   C        3.74636        -6.29765        -0.70468
   C        2.35304        -6.24166        -1.00008
   S        1.29208        -6.99753         0.16022
   C       -0.10984        -6.52483        -0.73507
   C        0.23779        -5.88563        -1.91591
   C        1.63025        -5.72851        -2.06171
   C        2.13262        -5.12292        -3.34171
   O        3.50147        -4.79037        -3.27255
   C        4.12261        -4.59211        -4.51820
   C        1.20219        -3.93670        -3.64430
   C       -0.18561        -4.46318        -3.98623
   C       -0.78075        -5.41196        -2.91969
   O       -1.48566        -6.48382        -3.52961
   C       -0.70793        -7.54199        -4.02793
   C       -1.40460        -6.78506        -0.22414
   S       -1.60066        -7.47363         1.41424
   C       -3.29118        -7.42788         1.15005
   C       -3.57415        -6.91299        -0.12375
   N       -2.52409        -6.55932        -0.85025
   C       -5.04633        -6.90708        -0.38218
   C       -5.56594        -7.48404         0.90147
   C       -4.50982        -7.76001         1.77873
   S       -5.04319        -8.39452         3.27840
   C       -6.70868        -8.31904         2.72553
   C       -6.80265        -7.81505         1.43482
   C       -7.77583        -8.75235         3.54607
   C       -7.65474        -9.05514         4.86282
   C       -8.72163        -9.52448         5.66751
   S      -10.23635       -10.00053         4.97110
   C      -10.88321       -10.39096         6.54440
   C       -9.95047       -10.08879         7.55409
   C       -8.72678        -9.64846         7.06197
   C       -7.54826        -9.32944         7.95370
   O       -6.30083        -9.71451         7.40734
   C       -6.11617       -11.09383         7.17958
   C       -7.79534        -9.90385         9.35483
   C       -9.17381        -9.48834         9.84476
   C      -10.25724       -10.20586         9.02900
   O      -11.56922        -9.78506         9.35976
   C      -11.88066        -8.43583         9.10140
   C      -12.10261       -11.03031         6.79062
   C      -13.10340       -11.39994         5.92413
   C      -14.28030       -12.15391         6.30203
   C      -14.47714       -12.84367         7.47067
   C      -15.65609       -13.55546         7.77472
   N      -16.59445       -14.13997         8.08409
   C      -13.52091       -12.99854         8.49753
   N      -12.78747       -13.21942         9.35333
   C      -15.19498       -12.13724         5.16150
   C      -14.56673       -11.47704         4.09104
   C      -13.22758       -11.01435         4.51582
   O      -12.42133       -10.41779         3.82560
   C      -15.18111       -11.32957         2.86510
   C      -16.45933       -11.85005         2.70284
   C      -17.09506       -12.50222         3.76382
   C      -16.46947       -12.65252         4.99731
  Cl      -18.67804       -13.13491         3.55153
  Cl      -17.25836       -11.68933         1.19060
   H        8.88887        -5.30491        -1.44627
   H        5.78364        -1.51344        -2.31348
   H        4.09804        -7.24896        -0.31220
   H        2.00564        -5.87646        -4.14241
   H        5.18487        -4.47128        -4.31125
   H        3.75352        -3.69436        -5.02488
   H        3.97649        -5.45796        -5.17474
   H        1.58887        -3.35730        -4.48387
   H        1.15986        -3.28326        -2.77071
   H       -0.13573        -5.00709        -4.93232
   H       -0.86691        -3.62560        -4.13380
   H       -1.57075        -4.89605        -2.36095
   H       -1.41129        -8.23299        -4.48855
   H       -0.16505        -8.06149        -3.22983
   H        0.01280        -7.21264        -4.78644
   H       -5.30168        -7.51685        -1.25039
   H       -5.42296        -5.89914        -0.56453
   H       -7.74507        -7.69610         0.93137
   H       -8.74592        -8.82373         3.06973
   H       -6.70019        -8.92285         5.35443
   H       -7.45478        -8.23591         8.02917
   H       -5.24136       -11.17404         6.53629
   H       -6.97805       -11.53924         6.67283
   H       -5.92275       -11.63685         8.10994
   H       -7.01866        -9.53962        10.02833
   H       -7.73905       -10.99315         9.32141
   H       -9.28392        -8.40817         9.73237
   H       -9.30387        -9.73832        10.89804
   H      -10.26437       -11.27052         9.30486
   H      -12.96532        -8.36427         9.16490
   H      -11.55798        -8.12823         8.10116
   H      -11.43941        -7.76475         9.84529
   H      -12.26305       -11.26168         7.83591
   H      -14.67989       -10.82482         2.05448
   H      -16.99034       -13.16051         5.79225
*
