# ORCA input file
# SCF done       -177.735707826774          0.000898624378
! CAM-B3LYP def2-SVP def2/J RIJCOSX Grid4 TightSCF
%maxcore 5000
%tddft
    Mode sTDDFT
    Ethresh 5.0
    maxcore 5000
end

%pal
  nprocs 6
  end
* xyz 0 1
   C       -8.63800        -1.22295         0.74802
   C       -9.75292        -1.47885         1.49612
   C      -10.49555        -2.67848         1.42660
   N      -11.13321        -3.63202         1.41979
   C      -10.31462        -0.59344         2.44208
   N      -10.82876         0.07966         3.21617
   C       -8.05903        -2.10052        -0.25844
   C       -6.88292        -1.50377        -0.78061
   C       -6.12517        -2.09013        -1.76609
   C       -6.55143        -3.32296        -2.26783
   C       -7.72578        -3.91562        -1.73907
   C       -8.48802        -3.32538        -0.74015
   S       -8.07016        -5.43782        -2.50003
   C       -6.65567        -5.26129        -3.50485
   C       -5.95869        -4.12078        -3.28324
  Br       -6.23368        -6.59748        -4.74802
   C       -6.64459        -0.22030        -0.10999
   O       -5.65588         0.47323        -0.17311
   C       -7.83242        -0.00647         0.77911
   C       -8.03726         1.12015         1.49232
   C       -7.28286         2.33267         1.26091
   C       -6.77711         3.15414         2.25092
   C       -6.85806         2.92177         3.62693
   N       -6.93273         2.72276         4.75409
   S       -5.94623         4.53363         1.61435
   C       -6.27656         4.02680        -0.00860
   C       -7.00826         2.85430        -0.03716
   C       -7.60052         2.27582        -1.17610
   N       -8.16549         1.78930        -2.04676
   C       -5.78620         4.82445        -1.10590
   C       -5.44980         4.32588        -2.35331
   F       -5.52462         3.01927        -2.60877
   C       -4.95110         5.14264        -3.39077
   F       -4.61916         4.53945        -4.53551
   C       -4.74202         6.49794        -3.24350
   C       -5.07115         7.04416        -1.98294
   C       -5.57241         6.21514        -0.92563
   N       -5.80786         6.91631         0.18164
   S       -5.44280         8.45665        -0.08605
   N       -4.98084         8.32136        -1.61340
   C       -4.15582         7.33080        -4.28466
   C       -4.54240         7.33154        -5.60991
   C       -5.61844         6.63486        -6.16967
   N       -6.52234         6.09016        -6.61767
   S       -3.60271         8.42171        -6.57244
   C       -2.66372         8.89406        -5.19175
   C       -3.10068         8.24918        -4.04517
   C       -2.47485         8.42028        -2.79612
   N       -1.94546         8.54547        -1.78760
   C       -1.62978         9.87815        -5.26389
   C       -0.79891        10.13730        -6.29656
   C       -0.50689         9.41024        -7.52212
   C       -0.50435         8.04946        -7.66321
   C       -0.10940         7.38542        -8.84416
   N        0.19107         6.80995        -9.78949
   C       -0.80910         7.16775        -6.60429
   N       -1.01878         6.43398        -5.74752
   C        0.05618        10.36742        -8.46269
   C        0.35017        11.57142        -7.76934
   C       -0.07783        11.44942        -6.36460
   O        0.05560        12.24112        -5.46552
   C        0.94086        12.64879        -8.38604
   C        1.24371        12.53709        -9.74676
   C        0.93159        11.33563       -10.43244
   C        0.34280        10.24297        -9.80912
   S        1.38180        11.41958       -12.10622
   C        1.98032        13.04053       -11.86944
   C        1.84820        13.49833       -10.60067
  Br        2.71899        13.97364       -13.31648
   H       -5.23933        -1.60456        -2.14371
   H       -9.37471        -3.81538        -0.37409
   H       -5.06417        -3.85084        -3.81414
   H       -8.79664         1.16921         2.26140
   H       -1.53857        10.53232        -4.40096
   H        1.16425        13.54876        -7.83509
   H        0.11634         9.35009       -10.36841
   H        2.16387        14.47406       -10.27960
*
