# ORCA input file
# SCF done       -181.688016644125          0.000578926335
! CAM-B3LYP def2-SVP def2/J RIJCOSX Grid4 TightSCF
%maxcore 5000
%tddft
    Mode sTDDFT
    Ethresh 5.0
    maxcore 5000
end

%pal
  nprocs 6
  end
* xyz 0 1
   C        0.16121         1.36734         1.67799
   C        1.48436         1.70712         1.70801
   F        1.85124         2.96381         1.99890
   C        2.47801         0.74643         1.43511
   F        3.76917         1.10854         1.47098
   C        2.13467        -0.54205         1.13618
   C        0.77959        -0.92350         1.09756
   C       -0.22652         0.04679         1.37370
   C       -1.59335        -0.31334         1.34220
   C       -1.94179        -1.60452         1.04501
   C       -0.93101        -2.56430         0.76614
   C        0.39574        -2.24749         0.78821
   C       -1.55759        -3.87107         0.46705
   O       -0.96596        -4.89512         0.19956
   C       -3.01616        -3.63072         0.52130
   C       -3.24187        -2.26119         0.93767
   C       -4.44833        -1.68360         1.24521
   C       -5.69835        -2.33632         1.22030
   N       -6.75095        -2.79668         1.24404
   C       -4.59556        -0.34781         1.67152
   N       -4.77933         0.72975         2.02335
   C       -3.99758        -4.47610         0.07525
   C       -3.91073        -5.83895        -0.27982
   C       -3.05065        -6.80887         0.20025
   C       -3.48243        -8.07848        -0.28906
   C       -2.86188        -9.30503        -0.02592
   N       -2.38127       -10.32407         0.19847
   C       -4.62736        -7.90567        -1.04981
   C       -4.93536        -6.52062        -1.08542
   C       -5.92997        -5.91011        -1.83704
   C       -7.16998        -6.56106        -2.34910
   C       -7.77852        -5.65858        -3.19596
   C       -7.00166        -4.46740        -3.21657
   C       -5.90509        -4.60946        -2.37143
   C       -7.29950        -3.33803        -3.98892
   N       -7.54696        -2.41922        -4.63197
   C       -7.65067        -7.80652        -1.90696
   C       -8.69835        -8.48313        -2.47124
   C       -9.14325        -9.74994        -2.05601
   N      -10.15357       -10.40797        -2.73128
   C      -10.34963       -11.62051        -2.15332
   C      -11.07743       -12.79547        -2.22697
   C      -10.60896       -13.61455        -1.18252
   N       -9.62410       -12.94514        -0.48636
   C       -9.43670       -11.72849        -1.06207
   C       -8.68639       -10.56918        -1.00042
   C      -11.04122       -14.92911        -0.89861
   C      -10.59821       -15.71001         0.12198
   C      -10.99608       -17.05591         0.36980
   C      -10.49139       -17.74788         1.47024
   C      -10.80639       -19.06611         1.75305
   C      -11.65610       -19.84190         0.96533
   C      -12.20702       -19.17676        -0.16962
   C      -11.88332       -17.79954        -0.45854
   N      -12.49409       -17.36930        -1.55930
   S      -13.38183       -18.55716        -2.17879
   N      -13.03695       -19.68112        -1.08133
   C      -11.93172       -21.21885         1.27615
   C      -12.80046       -21.99900         0.55414
   C      -13.08272       -23.34354         0.79671
   C      -12.51465       -24.03874         1.96268
   C      -11.63216       -23.47497         2.81370
   S      -11.05125       -21.87067         2.66407
   C      -13.09072       -25.33655         1.94844
   C      -13.94899       -25.45003         0.85041
   C      -14.54843       -26.72895         0.77601
   C      -14.14350       -27.52982         1.79409
   S      -13.02048       -26.77713         2.88095
   C      -13.93832       -24.22087         0.11293
   C      -14.69187       -24.03094        -1.09613
   C      -14.44679       -23.15475        -2.07094
   H       -0.58708         2.11500         1.89014
   H        2.90698        -1.26622         0.92900
   H       -2.33043         0.44551         1.54909
   H        1.14186        -2.99708         0.57215
   H       -4.98625        -4.04931        -0.04199
   H       -2.22240        -6.66302         0.86473
   H       -5.11343        -8.67686        -1.61734
   H       -8.70559        -5.78163        -3.72256
   H       -5.11652        -3.88979        -2.26230
   H       -7.15188        -8.25428        -1.06112
   H       -9.20527        -8.04907        -3.32263
   H      -10.63957       -10.03542        -3.52887
   H      -11.84561       -13.06596        -2.92273
   H       -9.11597       -13.31890         0.29550
   H       -7.91179       -10.31982        -0.30440
   H      -11.78010       -15.33591        -1.57244
   H       -9.87608       -15.31809         0.82828
   H       -9.81678       -17.22967         2.13636
   H      -10.36358       -19.51277         2.63057
   H      -13.31505       -21.50773        -0.25676
   H      -11.21541       -24.00393         3.65660
   H      -15.23954       -27.04248         0.01470
   H      -14.43398       -28.54371         1.98909
   H      -15.51938       -24.72137        -1.21325
   H      -13.60790       -22.48246        -2.05599
   H      -15.07985       -23.10639        -2.94050
*
