# ORCA input file
# SCF done       -183.340700365610          0.000677106456
! CAM-B3LYP def2-SVP def2/J RIJCOSX Grid4 TightSCF
%maxcore 5000
%tddft
    Mode sTDDFT
    Ethresh 5.0
    maxcore 5000
end

%pal
  nprocs 6
  end
* xyz 0 1
   C        3.40815         4.70875        -1.59325
   C        2.23111         4.52595        -2.26585
   C        2.15054         4.21814        -3.63976
   N        2.01883         3.99256        -4.75757
   C        0.95342         4.58540        -1.67373
   N       -0.11619         4.61215        -1.25749
   C        4.73723         4.44784        -2.13063
   C        5.65074         4.30853        -1.04440
   C        6.97095         4.02622        -1.24865
   C        7.44753         3.87710        -2.57051
   C        6.54297         4.03147        -3.66110
   C        5.18013         4.31846        -3.41989
   C        7.03303         3.88786        -4.97520
   C        8.35161         3.60294        -5.20350
   C        9.24109         3.44998        -4.12933
   C        8.79867         3.58354        -2.84124
   C        4.93808         4.53348         0.22483
   O        5.36352         4.43891         1.35046
   C        3.56318         4.97479        -0.17527
   C        2.78654         5.61238         0.72789
   C        1.60624         6.40155         0.50413
   N        0.70185         6.43126         1.46886
   N       -0.38048         7.12682         1.41073
   C       -0.72636         7.85672         0.36225
   C        0.12579         7.86466        -0.77453
   C        1.36709         7.16059        -0.67640
   N        2.10849         7.30312        -1.77356
   S        1.28897         8.19628        -2.83322
   N       -0.02570         8.45858        -1.95349
   C       -1.99110         8.52733         0.40887
   S       -3.27018         7.66938         1.14880
   C       -4.43750         8.85050         0.66782
   C       -3.82917         9.92537        -0.02874
   C       -2.40747         9.75235        -0.12767
   C       -1.58427        10.77051        -0.67547
   C       -0.13043        10.80579        -0.48995
   O        0.49815        10.20562         0.35453
   O        0.48799        11.66032        -1.32622
   C       -2.20584        11.85811        -1.26649
   C       -3.58208        11.98767        -1.26883
   C       -4.42097        11.07774        -0.62994
   O       -5.70848        11.36771        -0.63471
   C       -5.79107         8.57853         1.01492
   N       -6.77096         9.40789         0.66131
   N       -8.03193         9.19699         0.88617
   C       -8.47756         8.12327         1.50529
   C       -7.53915         7.19268         2.03338
   C       -6.15372         7.41881         1.76378
   N       -5.38006         6.49121         2.31201
   S       -6.31127         5.44464         3.10319
   N       -7.73503         6.12163         2.79501
   C       -9.90363         7.93815         1.64765
   C      -10.51940         6.76770         1.37355
   C      -11.92035         6.42693         1.58018
   C      -12.81890         7.13539         2.32928
   C      -14.16079         6.74647         2.53077
   N      -15.26042         6.48326         2.72686
   C      -12.52379         8.32730         3.02605
   N      -12.35386         9.28666         3.63229
   C      -12.16830         5.15403         0.91820
   C      -10.94541         4.67889         0.36143
   C       -9.87331         5.65065         0.61832
   O       -8.73050         5.59901         0.21998
   C      -10.87453         3.49815        -0.32149
   C      -12.04392         2.72255        -0.48094
   C      -13.27246         3.19330         0.06762
   C      -13.31615         4.41983         0.76825
   C      -14.43529         2.41482        -0.10519
   C      -14.38860         1.22857        -0.78552
   C      -13.17848         0.76589        -1.32441
   C      -12.03100         1.49645        -1.17478
   H        7.64486         3.91847        -0.41181
   H        4.51912         4.44096        -4.26351
   H        6.34362         4.00321        -5.79861
   H        8.71683         3.49322        -6.21356
   H       10.27848         3.22610        -4.32781
   H        9.47896         3.46669        -2.01048
   H        3.11243         5.56082         1.76145
   H        1.42987        11.70610        -1.09992
   H       -1.59862        12.63274        -1.70644
   H       -4.05100        12.84107        -1.73206
   H       -6.26447        10.67883        -0.15596
   H      -10.46272         8.81028         1.95792
   H       -9.93593         3.16122        -0.73596
   H      -14.26236         4.75326         1.16410
   H      -15.36430         2.77464         0.31196
   H      -15.28448         0.63970        -0.91271
   H      -13.16038        -0.17186        -1.85919
   H      -11.09667         1.14587        -1.58810
*
