# ORCA input file
# SCF done       -203.191060717850          0.000469388093
! CAM-B3LYP def2-SVP def2/J RIJCOSX Grid4 TightSCF
%maxcore 5000
%tddft
    Mode sTDDFT
    Ethresh 5.0
    maxcore 5000
end

%pal
  nprocs 6
  end
* xyz 0 1
   C        4.98796         5.21112         1.39361
   C        4.68316         5.44050         0.07624
   C        5.54139         5.12774        -0.99741
   N        6.19871         4.89924        -1.91020
   C        3.44265         5.93878        -0.36033
   N        2.43306         6.33254        -0.74068
   C        6.15089         4.46378         1.86351
   C        5.89695         4.01503         3.19234
   C        6.79419         3.24480         3.87433
   C        8.01237         2.89178         3.25112
   C        8.28207         3.35641         1.93145
   C        7.33078         4.14792         1.24676
   C        9.50441         3.00411         1.32454
   C       10.41540         2.22535         1.98494
   C       10.14761         1.76557         3.28288
   C        8.97202         2.09223         3.90264
   C        4.58812         4.52348         3.63358
   O        4.01298         4.31178         4.67622
   C        4.11886         5.41614         2.53037
   C        3.07433         6.25114         2.78506
   C        2.63246         7.40772         2.10304
   C        3.31430         8.27080         1.25449
   F        4.61131         8.12317         0.96452
   C        2.54350         9.33731         0.79671
   C        1.23230         9.29573         1.29405
   S        0.98856         7.96648         2.35813
   C        0.45059        10.33631         0.79541
   C        1.17184        11.16943        -0.07524
   S        2.82872        10.67350        -0.28237
   C        0.38518        12.19711        -0.58453
   F        0.82430        13.13213        -1.43733
   C       -0.93583        12.17833        -0.13432
   S       -1.19081        10.83882         0.97090
   C       -1.93798        13.08095        -0.52240
   C       -3.25247        13.07119        -0.12941
   C       -4.26461        13.96148        -0.57335
   C       -5.49863        13.70745        -0.05777
   C       -5.52834        12.60992         0.83183
   S       -3.93108        11.91181         0.99366
   C       -6.60356        12.06954         1.51113
   C       -7.96500        12.44812         1.45830
   C       -8.77756        11.66798         2.22051
   C       -8.10231        10.64096         2.93580
   S       -6.38706        10.71594         2.59175
   C       -8.71699         9.68016         3.69912
   C       -8.11539         8.66242         4.46818
   C       -6.85069         8.57078         5.04040
   F       -5.95796         9.56834         5.03018
   C       -6.62564         7.37638         5.72288
   C       -7.72957         6.51216         5.68905
   S       -9.05216         7.21518         4.83081
   C       -7.48987         5.31173         6.35972
   C       -6.19325         5.28665         6.90611
   S       -5.26862         6.73339         6.60079
   C       -5.93918         4.09630         7.56470
   F       -4.78714         3.81398         8.17584
   C       -7.00078         3.18324         7.53022
   S       -8.36440         3.84834         6.64203
   C       -6.90296         1.92793         8.15356
   C       -7.79161         0.88674         8.15781
   C       -7.60529        -0.39955         8.80333
   C       -6.62058        -0.74706         9.69072
   C       -6.51165        -2.02070        10.28755
   N       -6.36365        -3.03506        10.80455
   C       -5.60367         0.10674        10.16850
   N       -4.75873         0.73723        10.62335
   C       -8.70086        -1.26457         8.37565
   C       -9.58519        -0.50612         7.55513
   C       -9.06133         0.85974         7.42047
   O       -9.57690         1.78059         6.80844
   C      -10.71238        -1.04978         7.00996
   C      -11.00935        -2.40870         7.25830
   C      -10.12626        -3.17733         8.07005
   C       -8.96925        -2.58356         8.62622
   C      -10.42767        -4.53395         8.30476
   C      -11.54795        -5.10582         7.76535
   C      -12.41771        -4.34776         6.96770
   C      -12.15430        -3.02769         6.71976
   H        6.57733         2.90741         4.87697
   H        7.56418         4.49382         0.25201
   H        9.70450         3.35769         0.32374
   H       11.34760         1.95841         1.50998
   H       10.87731         1.15153         3.78923
   H        8.76025         1.74153         4.90216
   H        2.52305         6.01569         3.69149
   H       -1.63078        13.84936        -1.22023
   H       -4.04438        14.75449        -1.26577
   H       -6.38101        14.27647        -0.28900
   H       -8.30462        13.27073         0.85511
   H       -9.84283        11.79311         2.30099
   H       -9.79879         9.65827         3.66769
   H       -5.96401         1.78663         8.67758
   H      -11.36726        -0.45174         6.39375
   H       -8.32045        -3.19409         9.23365
   H       -9.75531        -5.11326         8.92039
   H      -11.76972        -6.14611         7.95072
   H      -13.29715        -4.81479         6.55016
   H      -12.82013        -2.43897         6.10575
*
