# ORCA input file
# SCF done       -176.111091940762          0.000382251512
! CAM-B3LYP def2-SVP def2/J RIJCOSX Grid4 TightSCF
%maxcore 5000
%tddft
    Mode sTDDFT
    Ethresh 5.0
    maxcore 5000
end

%pal
  nprocs 6
  end
* xyz 0 1
   C        8.62980        -1.14154        -4.21238
   S        8.82166        -2.20967        -2.86296
   C        7.38177        -3.02442        -3.49415
   N        6.93331        -2.45843        -4.57189
   N        7.62560        -1.41896        -4.96667
   C        6.81614        -4.15426        -2.83942
   C        5.76160        -4.83693        -3.34584
   C        5.14783        -5.95101        -2.71321
   C        4.54743        -7.03808        -3.33424
   N        4.31699        -7.23494        -4.70944
   O        3.74980        -8.26388        -5.03367
   O        4.68560        -6.37865        -5.49426
   C        4.21160        -8.02744        -2.34863
   C        4.62674        -7.58727        -1.13131
   C        5.16962        -6.26748        -1.27537
   C        5.47203        -5.40107        -0.24316
   C        5.32528        -3.97608        -0.24895
   C        5.50738        -3.51725         1.01640
   C        5.84094        -4.61902         1.87775
   N        6.28511        -4.38605         3.19389
   O        6.79524        -5.29976         3.82129
   O        6.16684        -3.25100         3.62230
   C        5.81689        -5.79998         1.13696
   C        6.17606        -7.12707         1.46537
   C        6.05403        -7.70815         2.69525
   C        6.45149        -8.99733         3.10109
   N        7.30127        -9.89747         2.50273
   C        8.03412        -9.76619         1.26574
   C        7.24895       -10.31507         0.07600
   C        7.48936       -11.05291         3.29463
   O        8.21291       -11.97106         2.98149
   C        6.66631       -10.82143         4.46346
   C        6.05032        -9.57051         4.31864
   C        5.22997        -9.34327         5.48947
   O        4.49123        -8.44182         5.80642
   N        5.43396       -10.50188         6.29109
   C        4.84933       -10.55047         7.61170
   C        5.88274       -10.24888         8.69576
   C        6.28693       -11.38703         5.68840
   C        6.76574       -12.65690         6.11384
   C        6.46018       -13.33985         7.24023
   C        7.00500       -14.62997         7.59865
   C        7.44940       -15.51828         6.60553
   C        7.88087       -16.76759         6.97846
   C        7.88548       -17.16155         8.32256
   C        8.39823       -18.55258         8.39272
   O        8.55724       -19.26070         9.35383
   N        8.66150       -18.91162         7.08010
   C        8.38133       -17.90486         6.16621
   O        8.52026       -17.99271         4.97420
   C        9.21472       -20.19485         6.70107
   C       10.73830       -20.15169         6.67515
   C        7.46694       -16.30819         9.31461
   C        7.02782       -15.02341         8.96393
   C        6.65474       -14.07588         9.99186
   C        6.20121       -14.36964        11.22384
   C        5.82846       -13.32217        12.12342
   S        5.38708       -13.60979        13.79821
   C        5.14744       -11.86897        13.89666
   N        5.38717       -11.27170        12.77089
   N        5.75882       -12.06323        11.79946
   C        4.73057       -11.22662        15.11276
   C        4.55725        -9.91093        15.20588
   H        9.29914        -0.32459        -4.38988
   H        7.29217        -4.45897        -1.91796
   H        5.40377        -4.57239        -4.33300
   H        3.71132        -8.94859        -2.58003
   H        4.43504        -8.06458        -0.18961
   H        5.02049        -3.39919        -1.09964
   H        5.43421        -2.50367         1.36260
   H        6.51711        -7.71614         0.62715
   H        5.55900        -7.16111         3.48559
   H        8.94560       -10.35987         1.38731
   H        8.31359        -8.72030         1.12270
   H        7.08156       -11.38063         0.21059
   H        7.81517       -10.16729        -0.83937
   H        6.28237        -9.82725        -0.02802
   H        4.36397       -11.51693         7.76681
   H        4.07620        -9.77644         7.62086
   H        6.77276       -10.86147         8.56861
   H        5.46593       -10.44008         9.68086
   H        6.18136        -9.20542         8.63906
   H        7.48013       -13.07425         5.41538
   H        5.76391       -12.92402         7.94829
   H        7.42367       -15.24228         5.56336
   H        8.82428       -20.43943         5.71038
   H        8.86593       -20.92874         7.43139
   H       11.08087       -19.41213         5.95514
   H       11.12838       -21.12430         6.38969
   H       11.12427       -19.89472         7.65896
   H        7.50597       -16.61574        10.34738
   H        6.74508       -13.02524         9.75885
   H        6.07069       -15.38194        11.57530
   H        4.56756       -11.88176        15.95706
   H        4.72715        -9.27244        14.35631
   H        4.24779        -9.44849        16.12647
*
