# ORCA input file
# SCF done       -174.317860382460          0.000762351228
! CAM-B3LYP def2-SVP def2/J RIJCOSX Grid4 TightSCF
%maxcore 5000
%tddft
    Mode sTDDFT
    Ethresh 5.0
    maxcore 5000
end

%pal
  nprocs 6
  end
* xyz 0 1
   C        0.03298        -0.71591        -4.32883
   O       -0.30506        -1.32176        -3.20438
   C       -0.47837        -2.64360        -3.47875
   C       -0.24489        -2.88052        -4.80929
   C        0.09224        -1.61831        -5.37496
   C        0.43587        -1.27759        -6.74056
   O        0.71454        -0.18138        -7.14855
   C        0.42223        -2.49384        -7.71465
   F        1.28800        -3.44438        -7.32417
   F       -0.78987        -3.07200        -7.75765
   F        0.74361        -2.14670        -8.95560
   C       -0.84615        -3.53288        -2.41945
   S       -1.07982        -5.22453        -2.71345
   C       -1.45178        -5.51835        -1.04038
   C       -1.39350        -4.32541        -0.31188
   C       -1.05107        -3.21141        -1.09921
   C       -1.65442        -4.20154         1.06251
   N       -1.86545        -4.05913         2.18194
   C       -1.74732        -6.84089        -0.63276
   C       -1.99739        -7.23060         0.64731
   C       -2.28332        -8.57247         0.98674
   N       -2.53376        -8.99662         2.26852
   C       -2.60363        -8.17212         3.45240
   C       -3.92348        -7.41105         3.54114
   C       -2.78216       -10.37866         2.32645
   O       -3.02354       -10.97541         3.35621
   C       -2.66368       -10.82302         0.95242
   C       -2.35767        -9.69826         0.15852
   C       -2.23238       -10.14095        -1.21590
   O       -1.97464        -9.53846        -2.23941
   N       -2.47167       -11.51978        -1.15982
   C       -2.47822       -12.32824        -2.35721
   C       -3.89597       -12.61088        -2.84652
   C       -2.73606       -11.94968         0.12105
   C       -3.01448       -13.28820         0.45487
   C       -3.26376       -13.70050         1.73426
   C       -3.56749       -15.03432         2.08202
   C       -3.72892       -16.13558         1.26022
   C       -4.05458       -17.26878         2.04865
   C       -4.07612       -16.80018         3.45159
   C       -3.78981       -15.47445         3.45539
   C       -4.34215       -17.57131         4.58904
   N       -4.55473       -18.17425         5.54322
   C       -4.31957       -18.54629         1.60359
   C       -4.67219       -19.68278         2.38712
   C       -4.87798       -20.76160         1.55128
   C       -4.64715       -20.32563         0.18570
   C       -4.31222       -19.00682         0.20599
   C       -4.01222       -18.23468        -0.92119
   N       -3.76539       -17.60424        -1.84997
   C       -5.24722       -22.05687         2.02161
   O       -5.32180       -22.19883         3.35393
   C       -5.67578       -23.46150         3.63427
   C       -5.84340       -24.18077         2.49814
   C       -5.57140       -23.28753         1.41523
   C       -5.64876       -23.62137         0.01844
   O       -5.46249       -22.90648        -0.93772
   C       -6.03224       -25.10875        -0.25722
   F       -5.15883       -25.97015         0.29364
   F       -7.24431       -25.41971         0.23566
   F       -6.06349       -25.36479        -1.56155
   H        0.21341         0.34134        -4.31136
   H       -0.30696        -3.82703        -5.30483
   H       -0.95803        -2.21266        -0.71162
   H       -1.76283        -7.58272        -1.42167
   H       -1.97500        -6.50616         1.44642
   H       -1.75761        -7.48009         3.46727
   H       -2.51628        -8.85613         4.30105
   H       -4.04488        -6.73719         2.69625
   H       -3.94404        -6.82523         4.45530
   H       -4.75727        -8.10885         3.55457
   H       -1.93756       -13.25992        -2.17156
   H       -1.93740       -11.75207        -3.11297
   H       -4.47266       -13.14318        -2.09359
   H       -3.85702       -13.21764        -3.74644
   H       -4.40393       -11.67748        -3.07687
   H       -3.02635       -14.01342        -0.34529
   H       -3.23559       -12.97630         2.53797
   H       -3.64077       -16.15362         0.19287
   H       -3.72700       -14.83068         4.31321
   H       -4.76749       -19.69082         3.45477
   H       -4.73227       -20.94886        -0.68219
   H       -5.77428       -23.72401         4.66904
   H       -6.12620       -25.21024         2.43740
*
