# ORCA input file
# SCF done       -175.917881700587          0.000963880530
! CAM-B3LYP def2-SVP def2/J RIJCOSX Grid4 TightSCF
%maxcore 5000
%tddft
    Mode sTDDFT
    Ethresh 5.0
    maxcore 5000
end

%pal
  nprocs 6
  end
* xyz 0 1
   C        3.78085         1.29525         1.64617
   O        4.02121         2.59214         1.42196
   C        4.57091         2.65112         0.19003
   N        4.67196         1.47164        -0.36484
   C        4.18386         0.59584         0.54530
   C        4.98833         3.93232        -0.31352
   C        5.40624         4.97344         0.49107
   N        5.74688         4.94019         1.86773
   O        5.69411         5.99710         2.46700
   O        6.10223         3.88501         2.35227
   C        5.57527         6.16534        -0.30114
   C        5.22542         5.87869        -1.57478
   C        4.84281         4.48455        -1.66378
   C        4.47170         3.83679        -2.82222
   C        4.62953         2.44444        -3.10927
   C        4.47410         2.25138        -4.44977
   C        4.12927         3.49672        -5.06387
   N        3.77790         3.60721        -6.42489
   O        3.21115         4.62004        -6.80018
   O        4.05518         2.66646        -7.14592
   C        4.07877         4.49652        -4.09179
   C        3.64274         5.81470        -4.29393
   C        3.00879         6.59507        -3.35802
   C        2.62413         7.91520        -3.63134
   N        1.78011         8.66742        -2.85136
   C        1.09243         8.22684        -1.66020
   C       -0.09285         7.32384        -1.98876
   C        1.55798         9.94252        -3.39278
   O        0.82147        10.76833        -2.89437
   C        2.38813         9.97825        -4.58549
   C        3.02043         8.73705        -4.70588
   C        3.91546         8.79035        -5.85357
   O        4.68796         7.97907        -6.30908
   N        3.73976        10.08654        -6.36374
   C        4.42244        10.51451        -7.56441
   C        3.51276        10.43829        -8.78685
   C        2.83772        10.81642        -5.63403
   C        2.50546        12.14431        -5.92924
   C        1.57588        12.85449        -5.20594
   C        1.12418        14.16299        -5.44051
   C        1.26869        15.05510        -6.52309
   N        2.13994        15.05565        -7.62760
   O        1.86428        15.80555        -8.54738
   O        3.13213        14.34078        -7.61910
   C        0.31433        16.10572        -6.38827
   C       -0.43413        15.89905        -5.26494
   C        0.05812        14.74042        -4.59768
   C       -0.30109        14.32166        -3.32713
   C        0.54798        13.70889        -2.36488
   C       -0.10526        13.68193        -1.17058
   C       -1.42660        14.22487        -1.33233
   N       -2.30511        14.24615        -0.23443
   O       -3.31032        14.93832        -0.27814
   O       -1.99495        13.57138         0.73143
   C       -1.59991        14.60863        -2.66125
   C       -2.72893        14.95343        -3.44032
   C       -3.96022        15.35453        -3.01784
   C       -5.01405        15.65389        -3.91870
   O       -6.21601        16.07202        -3.43589
   C       -6.97638        16.27296        -4.50594
   N       -6.38597        16.02842        -5.63642
   C       -5.13817        15.63370        -5.30155
   H        3.34071         1.01302         2.57975
   H        4.15979        -0.45536         0.34917
   H        5.94866         7.09024         0.09470
   H        5.32087         6.52918        -2.42105
   H        4.91094         1.71634        -2.37310
   H        4.57365         1.33057        -4.99314
   H        3.73682         6.19495        -5.30524
   H        2.74226         6.17097        -2.39975
   H        0.73753         9.13302        -1.16175
   H        1.80149         7.71681        -1.00217
   H       -0.80888         7.85978        -2.60684
   H       -0.58721         7.02187        -1.07006
   H        0.22924         6.43303        -2.52377
   H        5.26706         9.83218        -7.69086
   H        4.80060        11.53027        -7.42798
   H        3.15631         9.42071        -8.92762
   H        4.06778        10.73805        -9.67064
   H        2.65609        11.09864        -8.67617
   H        3.02004        12.61762        -6.75092
   H        1.09967        12.34735        -4.37682
   H        0.23711        16.92413        -7.07935
   H       -1.17200        16.57109        -4.87162
   H        1.57146        13.43593        -2.52602
   H        0.27190        13.33110        -0.22857
   H       -2.57468        14.87598        -4.50837
   H       -4.18186        15.47884        -1.96765
   H       -7.98656        16.60908        -4.38139
   H       -4.42154        15.36622        -6.05006
*
