# ORCA input file
# SCF done       -201.811804295476          0.000730203616
! CAM-B3LYP def2-SVP def2/J RIJCOSX Grid4 TightSCF
%maxcore 5000
%tddft
    Mode sTDDFT
    Ethresh 5.0
    maxcore 5000
end

%pal
  nprocs 6
  end
* xyz 0 1
   C       -0.21678         4.92197        -1.91015
   C       -0.43227         5.74793        -0.64932
   O       -0.88691         6.84743        -0.57024
   O       -0.02757         5.04053         0.42281
   C        0.56927         3.81041         0.03556
   C       -0.02409         3.51304        -1.35479
   C        0.80067         2.55195        -2.20209
   C        2.26812         2.95135        -2.27714
   C        2.90268         3.10152        -0.90120
   C        2.10799         3.97595         0.08290
   O        2.57047         3.57452         1.36715
   C        3.06806         2.33115         1.34741
   O        3.44282         1.75319         2.31978
   C        3.07716         1.80381        -0.09966
   C        4.32114         1.05638        -0.40197
   C        4.43459        -0.21558        -0.86613
   C        5.82990        -0.53791        -1.00761
   C        6.56802         0.65932        -0.56660
   C        5.65429         1.59952        -0.20560
   C        7.95470         0.80754        -0.44154
   N        9.08129         0.97098        -0.28982
   C        6.37904        -1.71905        -1.43363
   C        7.76322        -2.00971        -1.61433
   C        7.90952        -3.34397        -1.93397
   C        6.58114        -3.93696        -1.99439
   C        5.66120        -2.97217        -1.73114
   C        4.27453        -3.16005        -1.74646
   N        3.14096        -3.34272        -1.78066
   C        9.17024        -3.95616        -2.16183
   N        9.47045        -5.28924        -2.08051
   C        8.59058        -6.37022        -1.72575
   C       10.84554        -5.53308        -2.29605
   O       11.34159        -6.63629        -2.23462
   C       11.40152        -4.22462        -2.56896
   C       10.35713        -3.28270        -2.47422
   C       10.89136        -1.97691        -2.81574
   O       10.38213        -0.88413        -2.91575
   N       12.25516        -2.22599        -3.06641
   C       13.15805        -1.16359        -3.41710
   C       12.57961        -3.55095        -2.92195
   C       13.88580        -4.04976        -3.10556
   C       14.20403        -5.35986        -2.90506
   C       15.50478        -5.90917        -3.04925
   C       15.71335        -7.28086        -2.74476
   C       17.00650        -7.90481        -2.85458
   N       17.16997        -9.17861        -2.44252
   C       16.12813        -9.86619        -2.06182
   C       14.81702        -9.27343        -2.06372
   N       14.65802        -8.01031        -2.35813
   C       13.68891       -10.05038        -1.69703
   N       12.80636       -10.71207        -1.38991
   C       16.30477       -11.19204        -1.58743
   N       16.40797       -12.25665        -1.17976
   C       18.11624        -7.22219        -3.36538
   C       17.91887        -5.87457        -3.68264
   C       16.64539        -5.20855        -3.50496
   N       16.71854        -3.92371        -3.86051
   S       18.20575        -3.59283        -4.36557
   N       18.85211        -5.04106        -4.16308
   C       19.41142        -7.89860        -3.68882
   C       19.22761        -9.41194        -3.88431
   O       18.60472        -9.93057        -4.76254
   O       19.94696       -10.08596        -2.98428
   C       20.54517        -9.23492        -2.01678
   C       20.56353        -7.83479        -2.66460
   C       20.56145        -6.66722        -1.68569
   C       19.54495        -6.82364        -0.56367
   C       19.72019        -8.12614         0.20674
   C       19.78497        -9.38628        -0.67718
   O       20.46654       -10.34749         0.11893
   C       21.22100        -9.76289         1.06431
   O       21.94064       -10.36989         1.79706
   C       20.99823        -8.25635         1.03069
   H        0.67300         5.29614        -2.41896
   H       -1.06468         5.02219        -2.58375
   H        0.28228         3.06407         0.78288
   H       -1.01524         3.07275        -1.19876
   H        0.38081         2.52047        -3.20841
   H        0.71136         1.54831        -1.78267
   H        2.36755         3.89788        -2.81181
   H        2.82382         2.19933        -2.83997
   H        3.89348         3.55406        -1.02482
   H        2.33989         5.04061        -0.02091
   H        2.21403         1.14091        -0.21590
   H        3.63093        -0.88394        -1.10490
   H        5.87098         2.57377         0.19282
   H        8.55661        -1.29648        -1.51250
   H        6.35640        -4.95371        -2.25296
   H        8.00488        -6.12009        -0.84077
   H        9.22153        -7.23466        -1.51370
   H        7.92468        -6.62453        -2.55302
   H       12.57098        -0.24511        -3.43477
   H       13.59605        -1.33161        -4.40254
   H       13.95376        -1.06706        -2.67658
   H       14.65809        -3.35572        -3.40286
   H       13.43960        -6.06288        -2.59951
   H       19.74426        -7.46399        -4.63689
   H       21.56238        -9.61007        -1.85631
   H       21.48688        -7.76966        -3.25011
   H       20.36193        -5.75038        -2.24272
   H       21.56193        -6.57505        -1.25885
   H       18.53465        -6.79473        -0.97434
   H       19.64090        -5.98750         0.13176
   H       18.86625        -8.24478         0.88349
   H       18.79697        -9.79501        -0.90341
   H       21.85878        -7.79410         0.54481
   H       20.91873        -7.85772         2.03953
*
