# ORCA input file
# SCF done       -168.909486534249          0.000568408270
! CAM-B3LYP def2-SVP def2/J RIJCOSX Grid4 TightSCF
%maxcore 5000
%tddft
    Mode sTDDFT
    Ethresh 5.0
    maxcore 5000
end

%pal
  nprocs 6
  end
* xyz 0 1
   C        0.21952         1.32210         2.65402
   C        1.21948         0.57621         2.07167
   N        1.28100        -0.75345         2.07379
   C        0.34796        -1.48408         2.65624
   C       -0.74777        -0.83885         3.30103
   C       -0.79834         0.60038         3.29133
   N       -1.87441         1.06663         3.93174
   S       -2.72350        -0.17493         4.48255
   N       -1.78613        -1.36627         3.94641
   C        0.49382        -2.91246         2.60525
   C        1.53458        -3.59285         2.02277
   C        1.33118        -4.99423         2.20815
   C        0.04852        -5.13185         2.92602
   C       -0.43954        -3.88491         3.15591
   C       -0.62435        -6.32096         3.23262
   N       -1.23683        -7.26522         3.46203
   C        2.15996        -6.02194         1.82270
   C        2.01852        -7.40255         2.12991
   C        3.02642        -8.11678         1.50721
   C        3.85923        -7.16509         0.78571
   C        3.36785        -5.91365         0.98727
   C        3.92744        -4.74777         0.45131
   N        4.42523        -3.82260        -0.01255
   C        3.15871        -9.52493         1.61794
   N        3.82883       -10.37379         0.77661
   C        4.57307       -10.05333        -0.41881
   C        6.05619        -9.85148        -0.11728
   C        3.68997       -11.72194         1.16745
   O        4.17120       -12.64554         0.54680
   C        2.88383       -11.66715         2.36836
   C        2.56686       -10.31699         2.61277
   C        1.79523       -10.25110         3.84112
   O        1.34932        -9.32414         4.47863
   N        1.66505       -11.59739         4.23435
   C        0.89148       -11.95896         5.39794
   C       -0.51129       -12.42813         5.02102
   C        2.29986       -12.45552         3.37245
   C        2.30580       -13.85619         3.52462
   C        2.99913       -14.68074         2.68751
   C        2.99177       -16.09644         2.75438
   C        3.83892       -16.83474         1.88433
   C        3.84053       -18.27263         1.84753
   N        4.54487       -18.90915         0.89464
   C        5.33322       -18.22108         0.11437
   C        5.45673       -16.79667         0.26552
   N        4.68373       -16.15186         1.09924
   C        6.40256       -16.08005        -0.50901
   N        7.18947       -15.54817        -1.14914
   C        6.06591       -18.90460        -0.88839
   N        6.68835       -19.44390        -1.68423
   C        3.07745       -19.03885         2.75072
   C        2.23779       -18.32021         3.61621
   C        2.18809       -16.87252         3.62218
   N        1.32209       -16.42087         4.53199
   S        0.65689       -17.66702         5.29778
   N        1.41646       -18.84584         4.53210
   C        3.15931       -20.48500         2.77085
   C        2.04822       -21.29312         2.96262
   N        2.05525       -22.62702         2.95420
   C        3.16250       -23.28621         2.74627
   C        4.37649       -22.60812         2.53429
   C        4.38069       -21.17098         2.56407
   N        5.61151       -20.67520         2.42211
   S        6.63635       -21.89414         2.22779
   N        5.59934       -23.10874         2.33969
   H        0.20658         2.39852         2.63052
   H        2.04140         1.05898         1.56052
   H        2.37678        -3.14084         1.53820
   H       -1.35842        -3.62891         3.64816
   H        1.25156        -7.81374         2.75526
   H        4.74656        -7.39266         0.22747
   H        4.13080        -9.17501        -0.89291
   H        4.46311       -10.90995        -1.09073
   H        6.20582        -9.08311         0.63867
   H        6.58144        -9.56302        -1.02352
   H        6.48350       -10.78148         0.24909
   H        0.82230       -11.05310         6.00674
   H        1.42281       -12.72906         5.96348
   H       -1.03353       -11.63812         4.48716
   H       -1.07121       -12.66721         5.92068
   H       -0.47067       -13.31158         4.38791
   H        1.73294       -14.28895         4.33091
   H        3.60762       -14.26170         1.89645
   H        1.07727       -20.84510         3.11600
   H        3.11409       -24.36517         2.75366
*
