# ORCA input file
# SCF done       -199.635166483067          0.047424866104
! CAM-B3LYP def2-SVP def2/J RIJCOSX Grid4 TightSCF
%maxcore 5000
%tddft
    Mode sTDDFT
    Ethresh 5.0
    maxcore 5000
end

%pal
  nprocs 6
  end
* xyz 0 1
   C        2.17689         2.97609        -2.81944
   C        2.52701         4.28036        -3.04495
   C        2.58473         4.86946        -4.32479
   N        2.63175         5.41869        -5.33280
   C        2.96562         5.17525        -2.04676
   N        3.40952         5.91422        -1.28662
   C        2.01262         1.96591        -3.85763
   C        2.15092         0.67685        -3.26493
   C        2.09084        -0.46473        -4.01212
   C        1.90153        -0.36437        -5.40971
   C        1.72910         0.92086        -6.00139
   C        1.78399         2.08514        -5.20142
   C        1.52082         1.00443        -7.39300
   C        1.49229        -0.12440        -8.16710
   C        1.66493        -1.38956        -7.58460
   C        1.86191        -1.50656        -6.23535
   C        2.35843         0.82844        -1.81264
   O        2.54130        -0.03578        -0.98792
   C        2.12682         2.28647        -1.54605
   C        1.81033         2.69066        -0.28708
   C        1.25972         3.93088         0.12471
   O        0.77452         4.81597        -0.75467
   C        0.32918         5.90215        -0.08287
   C        0.49923         5.70150         1.27725
   C        1.10570         4.44346         1.42029
   C        1.50520         3.79136         2.67242
   O        1.99542         2.70262         2.75182
   O        1.18064         4.53226         3.73789
   C        1.49636         3.96804         5.00228
   C       -0.15480         6.96528        -0.89875
   N       -0.43306         8.24768        -0.50339
   C       -0.38613         8.79695         0.82818
   C       -1.66351         8.47904         1.60680
   C       -0.81009         9.06359        -1.60237
   O       -1.09657        10.23414        -1.48610
   C       -0.74116         8.17511        -2.73870
   C       -0.35842         6.89059        -2.27329
   C       -0.33505         6.00114        -3.41065
   O       -0.05126         4.82442        -3.52527
   N       -0.71179         6.81068        -4.49920
   C       -0.67968         6.27940        -5.84320
   C       -1.94042         5.48542        -6.17108
   C       -0.95359         8.10656        -4.11118
   C       -1.32751         9.19730        -4.94636
   C       -2.04381         9.13681        -6.09433
   C       -2.29403        10.29895        -6.87767
   O       -1.66044        11.43302        -6.57561
   C       -2.00907        12.38276        -7.46555
   C       -2.91503        11.84719        -8.37291
   C       -3.12016        10.51175        -7.99291
   C       -4.04340         9.59435        -8.67456
   O       -4.65767         9.87496        -9.67831
   O       -4.04788         8.36235        -8.12840
   C       -4.88227         7.41018        -8.77558
   C       -1.46256        13.68949        -7.45393
   C       -0.42391        14.17705        -6.71839
   C        0.10612        15.52898        -6.84086
   C       -0.50053        16.59759        -7.45231
   C        0.06712        17.88776        -7.52897
   N        0.45412        18.96303        -7.60789
   C       -1.77708        16.59105        -8.06057
   N       -2.77909        16.66976        -8.63801
   C        1.38018        15.57727        -6.13242
   C        1.59612        14.32140        -5.50074
   C        0.47175        13.41636        -5.79473
   O        0.34017        12.29400        -5.36820
   C        2.71477        14.06361        -4.76111
   C        3.69808        15.06956        -4.62729
   C        3.49516        16.32962        -5.26128
   C        2.32114        16.56889        -6.01272
   C        4.48572        17.32452        -5.12650
   C        5.62151        17.08884        -4.40080
   C        5.81651        15.84997        -3.77145
   C        4.87544        14.86181        -3.88197
   H        2.20801        -1.43331        -3.54644
   H        1.65152         3.04856        -5.66928
   H        1.39182         1.98025        -7.83622
   H        1.33223        -0.04972        -9.23156
   H        1.63536        -2.27053        -8.20935
   H        1.99195        -2.47756        -5.78118
   H        1.96213         1.97263         0.51262
   H        0.22997         6.34905         2.08306
   H        2.56819         3.77392         5.06645
   H        0.95852         3.02845         5.14533
   H        1.19555         4.69981         5.74731
   H       -0.29700         9.88097         0.70182
   H        0.50402         8.42428         1.34074
   H       -2.52036         8.94124         1.11119
   H       -1.58274         8.88795         2.61676
   H       -1.83186         7.39908         1.66826
   H        0.18423         5.60936        -5.90245
   H       -0.53556         7.10178        -6.54692
   H       -2.01623         4.63451        -5.49759
   H       -1.89643         5.12057        -7.19577
   H       -2.82816         6.10453        -6.04896
   H       -1.01299        10.16812        -4.58155
   H       -2.48644         8.22629        -6.46152
   H       -3.38984        12.35278        -9.18894
   H       -4.78589         6.48791        -8.20709
   H       -4.56397         7.26143        -9.81099
   H       -5.91909         7.75755        -8.77276
   H       -1.92025        14.33855        -8.18885
   H        2.85079        13.09988        -4.29341
   H        2.20283        17.53049        -6.48634
   H        4.33109        18.27592        -5.61335
   H        6.37200        17.86034        -4.29877
   H        6.71974        15.67995        -3.20634
   H        5.01893        13.90610        -3.39979
*
