# ORCA input file
# SCF done       -238.002352685258          0.000987237966
! CAM-B3LYP def2-SVP def2/J RIJCOSX Grid4 TightSCF
%maxcore 5000
%tddft
    Mode sTDDFT
    Ethresh 5.0
    maxcore 5000
end

%pal
  nprocs 6
  end
* xyz 0 1
   C      -15.14603        -8.09032        -1.71362
   C      -16.30014        -7.55228        -1.21831
   F      -17.48839        -8.02093        -1.61995
   C      -16.25751        -6.50000        -0.28065
   F      -17.40529        -5.99218         0.18687
   C      -15.06016        -6.00076         0.14861
   C      -13.85263        -6.53471        -0.34260
   C      -13.89395        -7.59936        -1.28994
   C      -12.69559        -8.15534        -1.79039
   C      -11.49122        -7.66457        -1.35483
   C      -11.45975        -6.59433        -0.41668
   C      -12.60197        -6.03715         0.08340
   C      -10.06050        -6.23391        -0.11840
   O       -9.68372        -5.37372         0.64462
   C       -9.23109        -7.11100        -0.99374
   C      -10.12155        -8.05526        -1.66295
   C       -9.73763        -9.16785        -2.35404
   C      -10.64354       -10.05965        -2.97064
   N      -11.33467       -10.80729        -3.49952
   C       -8.40857        -9.62515        -2.49696
   N       -7.37815       -10.11497        -2.62076
   C       -7.91650        -6.95035        -1.21896
   C       -7.05081        -6.03221        -0.41812
   C       -5.95903        -5.42859        -1.23453
   N       -6.20175        -4.68312        -2.29048
   S       -4.79886        -4.19499        -2.93275
   N       -3.83141        -4.91170        -1.84779
   C       -4.57261        -5.55849        -0.97339
   C       -3.96772        -6.37175         0.12966
   C       -5.06621        -6.98128         0.94845
   C       -6.45304        -6.84854         0.68687
   N       -7.19085        -7.52753         1.53861
   S       -6.23409        -8.27454         2.60694
   N       -4.82808        -7.74308         1.99534
   C       -3.14547        -7.46731        -0.47784
   N       -1.93658        -7.88793        -0.01597
   C       -1.18454        -7.38002         1.10538
   C       -1.60572        -8.03052         2.41974
   C       -1.42341        -8.95402        -0.80895
   O       -0.35506        -9.48399        -0.59280
   C       -2.43243        -9.15484        -1.81650
   C       -3.47909        -8.21662        -1.58328
   C       -4.44832        -8.37747        -2.64220
   O       -5.49620        -7.80330        -2.87226
   N       -3.92513        -9.39607        -3.45368
   C       -4.69959        -9.89234        -4.56841
   C       -4.49322        -9.05218        -5.82546
   C       -2.72062        -9.85873        -2.97810
   C       -1.86098       -10.84766        -3.53035
   C       -1.80304       -11.29331        -4.80740
   C       -0.85929       -12.25348        -5.25355
   S        0.12876       -13.15057        -4.13655
   C       -0.58697       -12.61501        -6.56946
   C       -1.25380       -12.02608        -7.74823
   O       -2.11096       -11.15954        -7.68650
   C       -0.76156       -12.58198        -8.99700
   C       -1.13881       -12.28547       -10.28942
   N       -0.39841       -13.03378       -11.14002
   C       -0.54274       -13.05671       -12.57404
   C       -1.48457       -14.17632       -13.01201
   C        0.44538       -13.82145       -10.43294
   C        0.25907       -13.57302        -9.09033
   C        0.91335       -14.17048        -7.94052
   O        1.76645       -15.03710        -8.00433
   C        0.42809       -13.59929        -6.66734
   C        0.90807       -14.01040        -5.43356
   C        1.95017       -14.94565        -5.18466
   C        2.08154       -15.76444        -4.11121
   C        3.41072       -16.34278        -3.75884
   O        4.39987       -16.36821        -4.44930
   C        3.26603       -16.80475        -2.36131
   C        4.22106       -17.29669        -1.51886
   C        3.85793       -17.64900        -0.19955
   C        2.50819       -17.47636         0.22530
   C        2.15567       -17.82038         1.54600
   C        3.09723       -18.31606         2.40316
   C        4.43108       -18.48888         1.98147
   C        4.80481       -18.16296         0.70799
   F        5.33322       -18.97645         2.84402
   F        2.76039       -18.64373         3.65764
   C        1.53916       -16.97133        -0.67079
   C        1.91202       -16.64820        -1.94809
   C        1.13737       -16.14898        -3.07934
   C       -0.21760       -16.27283        -3.22861
   C       -0.90077       -16.01799        -4.43686
   N       -1.48799       -15.86943        -5.41169
   C       -1.07422       -16.75585        -2.21774
   N       -1.81111       -17.13142        -1.42226
   H      -15.19692        -8.89645        -2.42875
   H      -15.04394        -5.19553         0.86628
   H      -12.75866        -8.95511        -2.51066
   H      -12.54976        -5.22878         0.79681
   H       -7.39606        -7.51715        -1.98035
   H       -7.67693        -5.24652         0.02735
   H       -3.33583        -5.74175         0.76575
   H       -1.29578        -6.29350         1.15565
   H       -0.13693        -7.61684         0.89675
   H       -2.66664        -7.87520         2.60056
   H       -1.03441        -7.60389         3.23944
   H       -1.41217        -9.09931         2.37930
   H       -5.74935        -9.83317        -4.26289
   H       -4.44375       -10.93865        -4.74049
   H       -4.79471        -8.02517        -5.63376
   H       -5.10142        -9.45075        -6.63230
   H       -3.45391        -9.05697        -6.14515
   H       -1.12127       -11.20508        -2.82162
   H       -2.43735       -10.89879        -5.58692
   H       -1.87739       -11.59017       -10.63621
   H        0.44404       -13.20221       -13.02185
   H       -0.93428       -12.08915       -12.89743
   H       -1.09844       -15.14200       -12.69513
   H       -1.58204       -14.17725       -14.09381
   H       -2.46907       -14.03700       -12.57207
   H        1.12760       -14.49837       -10.90765
   H        2.75258       -14.97150        -5.91653
   H        5.24031       -17.41490        -1.85370
   H        1.13838       -17.69735         1.88329
   H        5.82978       -18.30070         0.40116
   H        0.52674       -16.84085        -0.32306
*
