# ORCA input file
# SCF done       -226.197460292747          0.000759763917
! CAM-B3LYP def2-SVP def2/J RIJCOSX Grid4 TightSCF
%maxcore 5000
%tddft
    Mode sTDDFT
    Ethresh 5.0
    maxcore 5000
end

%pal
  nprocs 6
  end
* xyz 0 1
   C       -7.76362        -1.57177        -7.81535
   C       -7.24088        -2.15158        -8.93730
   F       -6.94714        -1.40434       -10.00663
   C       -7.00421        -3.54129        -8.98312
   F       -6.49156        -4.08157       -10.09473
   C       -7.29337        -4.33126        -7.90592
   C       -7.83199        -3.76348        -6.73457
   C       -8.07140        -2.35847        -6.68702
   C       -8.60965        -1.76663        -5.52228
   C       -8.89600        -2.55453        -4.43809
   C       -8.65825        -3.95872        -4.49469
   C       -8.14116        -4.55769        -5.60873
   C       -9.06938        -4.58109        -3.22651
   O       -9.01610        -5.75390        -2.92518
   C       -9.62535        -3.47049        -2.40562
   C       -9.43292        -2.22207        -3.12518
   C       -9.63022        -0.96961        -2.61635
   C      -10.00871        -0.72541        -1.27765
   N      -10.26418        -0.48253        -0.18595
   C       -9.41756         0.22201        -3.34276
   N       -9.26045         1.21574        -3.89353
   C      -10.34950        -3.68408        -1.28278
   C      -10.44529        -4.96421        -0.64489
   C      -11.59929        -5.67954        -0.43084
   N      -12.89197        -5.23233        -0.77994
   O      -13.83911        -5.89675        -0.41735
   O      -12.96617        -4.19041        -1.41132
   C      -11.28229        -6.96722         0.13915
   C       -9.93627        -7.06621         0.22744
   C       -9.33686        -5.83146        -0.23409
   C       -8.02037        -5.44615        -0.15776
   C       -7.54426        -4.10885         0.03468
   C       -6.22597        -4.15903         0.36488
   C       -5.77878        -5.52398         0.30150
   N       -4.43875        -5.89693         0.50935
   O       -3.64588        -5.01019         0.76848
   O       -4.14351        -7.07923         0.42766
   C       -6.84367        -6.33894        -0.06234
   C       -6.80027        -7.69750        -0.43379
   C       -7.71611        -8.29415        -1.25041
   C       -7.71175        -9.66749        -1.57042
   C       -8.70402       -10.32567        -2.30261
   C       -9.82264        -9.62321        -2.78318
   N      -10.72594        -9.00881        -3.12988
   C       -8.46673       -11.71460        -2.41170
   C       -7.28338       -12.07454        -1.75795
   S       -6.46300       -10.76385        -1.01235
   S       -6.90691       -13.76200        -1.79540
   C       -8.37145       -14.01397        -2.69462
   C       -9.10272       -12.86435        -2.96750
   C      -10.28526       -13.16441        -3.69961
   C      -11.17832       -12.19567        -4.18260
   N      -11.89527       -11.41045        -4.61313
   C      -10.42720       -14.52540        -3.93622
   S       -9.09632       -15.45342        -3.29062
   C      -11.50827       -15.20497        -4.57247
   S      -11.42108       -16.91623        -4.86746
   C      -13.05159       -16.95323        -5.44466
   C      -13.60922       -15.67601        -5.47136
   C      -12.71984       -14.70086        -4.97592
   C      -14.92865       -15.34325        -6.04745
   O      -15.74026       -16.18658        -6.36981
   C      -15.20996       -13.87608        -6.22285
   C      -13.57773       -18.22432        -5.83660
   C      -14.81602       -18.72114        -5.63528
   C      -15.27050       -19.91472        -6.41335
   O      -14.56874       -20.68697        -7.01933
   C      -16.74152       -19.88941        -6.31675
   C      -17.65471       -20.67623        -6.95949
   C      -19.03140       -20.44994        -6.73972
   C      -19.43792       -19.39981        -5.86468
   C      -20.81418       -19.17338        -5.65929
   C      -21.74238       -19.95514        -6.28746
   C      -21.33914       -20.99559        -7.14966
   C      -20.01282       -21.23830        -7.37240
   F      -22.27092       -21.74618        -7.75079
   F      -23.04871       -19.74096        -6.08912
   C      -18.47121       -18.60431        -5.20985
   C      -17.14149       -18.85271        -5.42425
   C      -15.94875       -18.22519        -4.87008
   C      -15.89186       -17.50574        -3.70962
   C      -14.69384       -17.10075        -3.08770
   N      -13.75199       -16.77876        -2.51514
   C      -17.03166       -17.12652        -2.96847
   N      -17.92494       -16.78474        -2.33514
   H       -7.93792        -0.50729        -7.79677
   H       -7.10784        -5.39263        -7.95775
   H       -8.78935        -0.70350        -5.51725
   H       -7.97394        -5.62384        -5.63030
   H      -10.96065        -2.89124        -0.86678
   H      -12.02327        -7.69086         0.41884
   H       -9.38271        -7.87025         0.67146
   H       -8.16972        -3.23688         0.05101
   H       -5.58614        -3.33953         0.63380
   H       -5.93896        -8.26189        -0.09432
   H       -8.49379        -7.70529        -1.71939
   H      -12.96864       -13.66162        -4.88495
   H      -15.28132       -13.39716        -5.24776
   H      -16.15546       -13.75650        -6.74563
   H      -14.41591       -13.39082        -6.78485
   H      -12.89306       -18.87625        -6.37224
   H      -17.33108       -21.45944        -7.62810
   H      -21.13963       -18.38350        -5.00052
   H      -19.72111       -22.03742        -8.03576
   H      -18.80347       -17.80717        -4.56430
*
