# ORCA input file
# SCF done       -184.100560752538          0.000997020938
! CAM-B3LYP def2-SVP def2/J RIJCOSX Grid4 TightSCF
%maxcore 5000
%tddft
    Mode sTDDFT
    Ethresh 5.0
    maxcore 5000
end

%pal
  nprocs 6
  end
* xyz 0 1
   O       -1.23878         4.42792        -5.27170
   C       -2.47631         4.39169        -4.70814
   N       -3.38534         3.89779        -5.50190
   C       -2.72335         3.58564        -6.65862
   C       -1.39908         3.92009        -6.49760
   C       -3.39358         2.99899        -7.81148
   O       -2.85029         2.70638        -8.84490
   C       -2.67985         4.85615        -3.38328
   S       -1.38206         5.48671        -2.42343
   C       -2.42063         5.77708        -1.05501
   C       -3.71312         5.39376        -1.36070
   C       -3.87429         4.87056        -2.67392
   C       -5.20793         4.47859        -2.94074
   C       -6.01879         4.69593        -1.86892
   C       -7.45153         4.42891        -1.71395
   O       -8.06902         4.65532        -0.70168
   O       -7.98833         3.90524        -2.82208
   C       -9.37740         3.61388        -2.75292
   S       -5.20663         5.39165        -0.48131
   C       -1.93418         6.30798         0.16951
   C       -2.67950         6.59831         1.27844
   C       -1.91595         7.07638         2.36671
   C       -2.37195         7.42264         3.65589
   C       -3.76141         7.30469         4.04795
   C       -4.47845         8.14972         4.84737
   C       -5.80728         7.71780         5.04524
   C       -6.12065         6.54462         4.42165
   S       -4.74435         5.94803         3.56163
   C       -7.40930         5.80931         4.40265
  Cl       -6.92965         8.61338         5.99520
   C       -1.40509         7.87157         4.54853
   C       -0.02812         7.97482         4.22650
   C        0.42778         7.62402         2.93810
   C       -0.54100         7.18788         2.03998
   S       -0.23615         6.65265         0.40886
   C        1.82314         7.68770         2.55459
   C        2.33721         8.06560         1.34637
   C        3.74418         7.96924         1.29546
   C        4.32259         7.50944         2.44295
   S        3.10430         7.19074         3.62918
   C        5.75905         7.28727         2.74138
  Cl        4.64131         8.40210        -0.10881
   C        0.73492         8.44151         5.32144
   C       -0.00071         8.65448         6.45430
   S       -1.69960         8.31721         6.20638
   C        0.48427         9.08478         7.72170
   C        1.79965         9.34319         8.06150
   C        1.92586         9.71888         9.39889
   C        0.69928         9.74652        10.07940
   S       -0.60926         9.31285         9.07211
   C        0.93879        10.12585        11.42866
   C        2.31964        10.33757        11.59260
   C        2.98556        10.08990        10.32583
   C        4.31975        10.17722        10.05508
   C        4.84415         9.90121         8.77465
   N        5.27352         9.67503         7.73569
   C        5.26489        10.54529        11.03567
   N        6.03943        10.84328        11.82696
   C        2.65663        10.70841        12.89686
   C        1.54125        10.77278        13.70368
   S        0.05833        10.37977        12.86814
   C        1.48522        11.10503        15.08841
   N        0.41782        11.13560        15.83086
   C        0.85187        11.49830        17.07764
   C        2.21411        11.67418        17.01779
   O        2.61786        11.42717        15.76671
   C       -0.05550        11.64187        18.20834
   O        0.27672        11.96992        19.31801
   H       -0.54993         3.84351        -7.14490
   H       -4.47390         2.84250        -7.64562
   H       -5.52954         4.06010        -3.87537
   H       -9.64880         3.20398        -3.72192
   H       -9.94563         4.52313        -2.54618
   H       -9.57367         2.88972        -1.95953
   H       -3.74500         6.47690         1.30276
   H       -4.09921         9.07018         5.25057
   H       -8.17139         6.39107         4.91516
   H       -7.30899         4.84442         4.89958
   H       -7.72827         5.62581         3.37725
   H        1.74911         8.43925         0.52916
   H        5.95336         6.23207         2.93274
   H        6.05756         7.84809         3.62625
   H        6.36216         7.60871         1.89599
   H        1.79225         8.61737         5.27539
   H        2.61523         9.25354         7.36892
   H        3.64881        10.91941        13.25251
   H        2.94105        11.95289        17.75241
   H       -1.10348        11.41534        17.94585
*
