# ORCA input file
# SCF done       -274.561531891396          0.000878789477
! CAM-B3LYP def2-SVP def2/J RIJCOSX Grid4 TightSCF
%maxcore 5000
%tddft
    Mode sTDDFT
    Ethresh 5.0
    maxcore 5000
end

%pal
  nprocs 6
  end
* xyz 0 1
   C       -7.31657        -1.70415         4.79418
   C       -6.91446        -2.69672         3.93970
   C       -6.75083        -4.04580         4.32114
   N       -6.60215        -5.15810         4.56260
   C       -6.55554        -2.53466         2.58389
   N       -6.22117        -2.49889         1.48570
   C       -7.56769        -1.87755         6.21820
   C       -7.76695        -0.60101         6.79764
   C       -8.01043        -0.42468         8.13871
   C       -8.06811        -1.56334         8.94685
   C       -7.87677        -2.83671         8.35784
   C       -7.62531        -3.01445         7.00269
   S       -7.99661        -4.10039         9.54117
   C       -8.29246        -2.93856        10.78768
   C       -8.30413        -1.66156        10.34705
   C       -7.67048         0.43812         5.75855
   O       -7.73277         1.63418         5.95689
   C       -7.48890        -0.29053         4.47708
   C       -7.57851         0.17993         3.19842
   C       -7.75079         1.48943         2.69184
   C       -7.76486         2.71962         3.30002
   C       -7.96217         3.79309         2.41070
   C       -7.98848         5.17160         2.72301
   C       -7.91294         5.66141         4.08261
   C       -7.25732         6.77181         4.53812
   C       -7.43892         6.97830         5.92072
   C       -8.23765         6.05260         6.53020
   S       -8.77763         4.88359         5.37956
   C       -8.64117         5.96648         7.95612
  Cl       -6.70782         8.29362         6.75761
   C       -8.11358         6.04173         1.64910
   C       -8.23645         5.61534         0.30109
   C       -8.20996         4.23994        -0.01276
   C       -8.07858         3.36279         1.06134
   S       -7.97053         1.63411         0.94865
   C       -8.29393         3.74896        -1.37244
   C       -8.92350         2.62250        -1.82152
   C       -8.75694         2.41767        -3.20789
   C       -7.99549         3.36258        -3.83280
   S       -7.47160         4.54839        -2.68780
   C       -7.61624         3.46050        -5.26398
  Cl       -9.46517         1.08037        -4.02840
   C       -8.43545         6.70475        -0.57770
   C       -8.44773         7.92158         0.04738
   S       -8.21235         7.77646         1.77460
   C       -8.62424         9.19989        -0.55183
   C       -8.83635         9.48007        -1.88860
   C       -8.97560        10.84967        -2.11758
   C       -8.86324        11.61439        -0.94479
   S       -8.59097        10.65049         0.43539
   C       -9.02490        12.98421        -1.28062
   C       -9.24585        13.08236        -2.66415
   C       -9.22021        11.74567        -3.23700
   C       -9.39297        11.40383        -4.54652
   C       -9.33597        10.06422        -4.98457
   N       -9.28637         8.97473        -5.33900
   C       -9.64128        12.36724        -5.54652
   N       -9.85031        13.15327        -6.35499
   C       -9.42447        14.39830        -3.09349
   C       -9.33800        15.29791        -2.04787
   S       -9.03161        14.50692        -0.51214
   C       -9.47869        16.71260        -2.11011
   C       -9.75218        17.47220        -3.21424
   C       -9.84734        18.85556        -2.94019
   C      -10.13781        19.90155        -3.84018
   C      -10.41370        19.67876        -5.24476
   C      -10.00664        20.44198        -6.30195
   C      -10.49472        19.96980        -7.53932
   C      -11.27996        18.85691        -7.44905
   S      -11.42049        18.36586        -5.79550
   C      -11.95038        18.09707        -8.53299
  Cl      -10.12196        20.75415        -9.02571
   C      -10.14094        21.18687        -3.31063
   C       -9.87428        21.47601        -1.94910
   C       -9.61644        20.42558        -1.04272
   C       -9.59650        19.14282        -1.57403
   S       -9.30479        17.68599        -0.66683
   C       -9.40593        20.68627         0.36606
   C      -10.08864        21.55435         1.17094
   C       -9.61126        21.55309         2.49832
   C       -8.56862        20.69991         2.72190
   S       -8.16197        19.86271         1.26515
   C       -7.81791        20.47155         3.98226
  Cl      -10.29452        22.54390         3.73010
   C       -9.89794        22.86470        -1.69194
   C      -10.17852        23.62962        -2.79265
   S      -10.48916        22.63639        -4.20522
   C      -10.29539        25.04679        -2.81537
   C      -10.25172        25.88747        -3.87759
   C       -9.84776        25.69165        -5.25712
   C       -8.83656        24.87509        -5.68700
   C       -8.42885        24.77131        -7.03222
   N       -8.07374        24.63762        -8.11536
   C       -8.02565        24.12496        -4.80840
   N       -7.30545        23.54862        -4.12518
   C      -10.49939        26.72792        -6.04598
   C      -11.05809        27.68703        -5.16005
   C      -10.84252        27.25345        -3.76778
   O      -11.12858        27.83729        -2.74857
   C      -11.69740        28.81696        -5.61143
   C      -11.80028        29.00203        -6.99337
   C      -11.25260        28.03075        -7.86688
   C      -10.59675        26.89221        -7.41355
   S      -11.50884        28.46324        -9.52716
   C      -12.32352        29.91258        -9.04977
   C      -12.40672        30.07153        -7.71102
   H       -8.15313         0.56310         8.54878
   H       -7.49043        -4.00553         6.60336
   H       -8.44212        -3.28979        11.79017
   H       -8.47249        -0.80818        10.97871
   H       -7.53960        -0.56722         2.41385
   H       -7.62080         2.83197         4.35756
   H       -6.63211         7.39891         3.93018
   H       -8.06764         6.67828         8.54480
   H       -8.46816         4.96180         8.33815
   H       -9.70184         6.19175         8.07000
   H       -9.51932         1.97562        -1.20519
   H       -6.53883         3.34587        -5.38456
   H       -7.89747         4.43188        -5.66904
   H       -8.11819         2.67920        -5.82934
   H       -8.58187         6.59625        -1.63502
   H       -8.88650         8.72213        -2.64773
   H       -9.60865        14.69323        -4.10951
   H       -9.87778        17.05169        -4.19350
   H       -9.34378        21.28346        -6.22016
   H      -11.73388        18.56267        -9.49100
   H      -13.02929        18.08068        -8.38138
   H      -11.59933        17.06577        -8.55122
   H      -10.93091        22.13853         0.84930
   H       -6.98932        21.17672         4.06593
   H       -7.41164        19.46331         4.00722
   H       -8.47533        20.61875         4.83717
   H       -9.65695        23.29696        -0.73803
   H      -10.52850        25.51127        -1.86186
   H      -12.10455        29.53689        -4.91855
   H      -10.19896        26.17400        -8.11178
   H      -12.69651        30.56596        -9.81438
   H      -12.87805        30.91063        -7.23219
*
