# ORCA input file
# SCF done       -172.530098786766          0.000982980262
! CAM-B3LYP def2-SVP def2/J RIJCOSX Grid4 TightSCF
%maxcore 5000
%tddft
    Mode sTDDFT
    Ethresh 5.0
    maxcore 5000
end

%pal
  nprocs 6
  end
* xyz 0 1
   C        5.17959         6.96030        -5.04861
   C        4.13039         7.73097        -5.46562
   F        4.18472         8.32812        -6.67142
   C        2.98531         7.92868        -4.68286
   C        2.91178         7.32992        -3.45569
   C        3.96463         6.52493        -2.97543
   C        5.12153         6.33824        -3.78642
   C        6.19517         5.54242        -3.32252
   C        6.10877         4.95309        -2.09066
   C        4.94273         5.12829        -1.29171
   C        3.89584         5.89609        -1.71114
   C        5.09016         4.35464        -0.04076
   O        4.32289         4.30638         0.89378
   C        6.35897         3.59612        -0.19773
   C        7.05171         4.11523        -1.35420
   C        8.40179         4.05856        -1.59863
   C        9.35190         3.44694        -0.75671
   N       10.20285         3.01800        -0.11516
   C        9.03299         4.67576        -2.69486
   N        9.61779         5.12642        -3.57523
   C        6.65553         2.56910         0.64881
   C        7.57940         1.50860         0.43381
   C        7.90887         1.01664        -0.82847
   C        8.83137         0.00624        -1.02545
   C        9.54760        -0.58697         0.01874
   C        9.17252        -0.17807         1.33263
   C        8.18261         0.85036         1.54003
   N        7.94553         1.13846         2.81034
  Se        8.94857         0.13028         3.82970
   N        9.68007        -0.67195         2.45113
   C       10.60578        -1.53008        -0.19619
   C       11.17874        -1.71359        -1.43992
   C       12.21569        -2.58381        -1.74086
   C       12.73862        -3.50603        -0.72666
   C       12.34443        -3.48685         0.56545
   S       11.18195        -2.40404         1.21616
   C       13.66849        -4.33408        -1.40985
   C       13.73293        -3.95576        -2.75378
   C       14.64734        -4.74682        -3.48716
   C       15.23622        -5.68388        -2.70209
   S       14.71510        -5.64610        -1.04686
   C       12.85800        -2.84130        -2.97708
   C       12.73266        -2.20514        -4.23513
   C       12.23677        -0.96586        -4.49071
   C       12.09681        -0.44151        -5.80395
   C       11.62968         0.77449        -6.27232
   O       11.20640         1.88460        -5.63696
   C       11.33301         2.05143        -4.24765
   C       11.58676         0.85726        -7.70961
   O       11.19017         2.04170        -8.22319
   C       10.88091         2.12859        -9.59344
   C       12.03558        -0.27224        -8.33352
   S       12.50344        -1.47569        -7.16406
   C       12.13239        -0.64726        -9.74858
   C       13.34717        -0.78392       -10.33763
   O       13.51912        -1.20011       -11.60380
   C       12.43662        -1.55037       -12.34258
   C       12.66105        -2.00267       -13.64327
   C       11.59089        -2.37013       -14.42872
   C       10.29054        -2.29382       -13.93539
   C       10.06763        -1.84807       -12.65339
   C       11.13678        -1.46776       -11.83773
   C       10.89970        -0.98939       -10.46771
   O        9.78467        -0.88551        -9.98401
   C       14.63946        -0.47901        -9.65127
   H        6.04732         6.83200        -5.67666
   H        2.18854         8.54727        -5.06436
   H        2.03946         7.46715        -2.83453
   H        7.05558         5.41035        -3.95959
   H        3.02372         6.02291        -1.08743
   H        6.09185         2.53340         1.57476
   H        7.39741         1.42160        -1.69028
   H        8.99038        -0.32940        -2.03824
   H       10.77567        -1.13041        -2.25187
   H       12.75822        -4.15939         1.30078
   H       14.85637        -4.63234        -4.53528
   H       15.96454        -6.41793        -2.98656
   H       13.11025        -2.77311        -5.07748
   H       11.95276        -0.33024        -3.66983
   H       11.07654         3.09472        -4.06161
   H       12.35482         1.86407        -3.90580
   H       10.63294         1.41407        -3.69724
   H       11.75721         1.92714       -10.21867
   H       10.55220         3.15439        -9.75162
   H       10.07502         1.44140        -9.86044
   H       13.67494        -2.05682       -14.00716
   H       11.76425        -2.72086       -15.43474
   H        9.46092        -2.58501       -14.56098
   H        9.07301        -1.77747       -12.23966
   H       14.90885        -1.29772        -8.98510
   H       14.54928         0.42426        -9.05277
   H       15.42462        -0.35792       -10.39278
*
