# ORCA input file
# SCF done       -230.724670119551          0.000996778595
! CAM-B3LYP def2-SVP def2/J RIJCOSX Grid4 TightSCF
%maxcore 5000
%tddft
    Mode sTDDFT
    Ethresh 5.0
    maxcore 5000
end

%pal
  nprocs 6
  end
* xyz 0 1
   C       11.70739        -9.91537        -2.25225
   C       10.39613        -9.69879        -2.02763
   C       10.12299        -8.37844        -1.56084
   C        8.87438        -7.79949        -1.27409
   C        7.65693        -8.58589        -1.31250
   C        7.46253        -9.84604        -0.82641
   C        6.14520       -10.31162        -1.03202
   C        5.32772        -9.42842        -1.67323
   S        6.19433        -7.97172        -2.03230
   C        3.90044        -9.58605        -2.05160
  Cl        5.63076       -11.87062        -0.50709
   C        8.87950        -6.44865        -0.94136
   C       10.05940        -5.67473        -0.84419
   C       11.31153        -6.25884        -1.10273
   C       11.30290        -7.60690        -1.45860
   S       12.70265        -8.54453        -1.90818
   C       12.55706        -5.52133        -1.03485
   C       13.75993        -5.97016        -0.56595
   C       14.78837        -5.01688        -0.71096
   C       14.39968        -3.84672        -1.29627
   S       12.71186        -3.90410        -1.66264
   C       15.21667        -2.65008        -1.61594
  Cl       16.40333        -5.32149        -0.19399
   C        9.77811        -4.34111        -0.43472
   C        8.46170        -4.10489        -0.23707
   S        7.47246        -5.50676        -0.54456
   C        7.84692        -2.79347         0.16048
   C        6.34309        -2.94181         0.43000
   N        7.97872        -1.91698        -1.01297
   N        8.32296        -0.77081        -1.03558
   C        8.61997         0.06016         0.17600
   C        8.94746        -0.82570         1.31870
   C        8.54539        -2.19575         1.32608
   N        8.94805        -2.71380         2.44777
   O        9.56717        -1.73520         3.12017
   N        9.57089        -0.58024         2.43341
   C        7.30883         0.81163         0.46061
   C        9.71970         1.01617        -0.14963
   C       11.05569         0.77776        -0.42897
   N       11.60944        -0.51889        -0.45700
   O       12.77787        -0.65960        -0.75012
   O       10.87352        -1.45233        -0.17616
   C       11.82236         1.96105        -0.69344
   C       13.28346         1.97397        -0.97562
   C       11.03421         3.07174        -0.63256
   S        9.38471         2.69286        -0.24156
   C       11.39504         4.51167        -0.90002
   C       11.63569         4.74432        -2.39495
   N       12.66604         4.78345        -0.18552
   N       12.75976         5.26047         0.91417
   C       11.64090         5.66145         1.77671
   C       10.44699         5.95130         0.94439
   C       10.33843         5.40415        -0.36777
   N        9.25593         5.88220        -0.91180
   O        8.70018         6.68273         0.00623
   N        9.42488         6.73537         1.13190
   C       11.38398         4.47570         2.72491
   C       12.07140         6.87309         2.54945
   C       13.18372         7.61357         2.35463
   C       13.28166         8.72317         3.24408
   C       14.30956         9.67637         3.33546
   C       15.51105         9.61423         2.52645
   C       16.19255        10.65090         1.95673
   C       17.36501        10.23283         1.29079
   C       17.60201         8.89074         1.35024
   S       16.34180         8.10794         2.24181
   C       18.73629         8.11894         0.78252
  Cl       18.40140        11.34036         0.47537
   C       14.13408        10.68840         4.27766
   C       13.01344        10.76748         5.13730
   C       11.99642         9.80072         5.05995
   C       12.15769         8.80704         4.09707
   S       11.05067         7.49135         3.81693
   C       10.83886         9.80177         5.93336
   C        9.54638         9.50823         5.60673
   C        8.67874         9.55263         6.71986
   C        9.28717         9.86240         7.90061
   S       10.97945        10.12080         7.64148
   C        8.68913         9.99074         9.25346
  Cl        6.99156         9.23752         6.57987
   C       13.09669        11.89898         6.00260
   C       14.22543        12.61366         5.82690
   S       15.25985        11.97964         4.59606
   H       12.17593       -10.81310        -2.60550
   H        9.63259       -10.43198        -2.20961
   H        8.21226       -10.41111        -0.30414
   H        3.54845       -10.56997        -1.75173
   H        3.77415        -9.47727        -3.12816
   H        3.28912        -8.82741        -1.56391
   H       13.90936        -6.92686        -0.10127
   H       16.16226        -2.69604        -1.08127
   H       14.68022        -1.74709        -1.33354
   H       15.42259        -2.60248        -2.68579
   H       10.52903        -3.58947        -0.28805
   H        6.19349        -3.68335         1.21071
   H        5.84553        -3.26718        -0.48016
   H        5.90812        -1.99755         0.75159
   H        6.52211         0.11212         0.73369
   H        6.99591         1.35256        -0.42986
   H        7.45492         1.50892         1.28307
   H       13.81931         1.44018        -0.19380
   H       13.65140         2.99381        -1.01993
   H       13.48943         1.45929        -1.91245
   H       12.39506         4.06225        -2.76291
   H       11.96867         5.76651        -2.55714
   H       10.70599         4.58680        -2.93498
   H       11.07214         3.59482         2.16607
   H       10.60433         4.74736         3.43206
   H       12.30028         4.24797         3.26345
   H       13.91331         7.37649         1.60312
   H       15.86397        11.67309         1.97560
   H       19.32073         8.75763         0.12484
   H       18.37364         7.26034         0.21986
   H       19.38455         7.74985         1.57763
   H        9.20696         9.30082         4.60903
   H        8.83474        10.99731         9.64453
   H        9.15468         9.29140         9.94719
   H        7.62344         9.78226         9.20266
   H       12.33748        12.16088         6.71533
   H       14.52918        13.50292         6.34327
*
