# ORCA input file
# SCF done       -252.731457630601          0.000427614387
! CAM-B3LYP def2-SVP def2/J RIJCOSX Grid4 TightSCF
%maxcore 5000
%tddft
    Mode sTDDFT
    Ethresh 5.0
    maxcore 5000
end

%pal
  nprocs 6
  end
* xyz 0 1
   C        8.74423        -8.69900        -5.61009
   C        9.07276        -8.54130        -4.31218
   C        8.43174        -7.41968        -3.70926
   C        8.52589        -6.97398        -2.37978
   C        9.36459        -7.61712        -1.38648
   C        9.07603        -7.84837        -0.07269
   C       10.15074        -8.43897         0.62755
   C       11.26755        -8.65227        -0.12580
   S       10.99205        -8.12420        -1.75153
   C       12.57054        -9.23518         0.28217
  Cl       10.04230        -8.84941         2.29636
   C        7.77440        -5.84896        -2.05153
   C        6.97930        -5.13940        -2.98221
   C        6.84142        -5.61699        -4.30118
   C        7.57922        -6.75390        -4.62307
   S        7.62773        -7.51606        -6.19022
   C        5.93053        -5.00578        -5.25074
   C        5.67123        -3.68733        -5.49418
   C        4.67987        -3.50058        -6.48332
   C        4.17103        -4.65445        -7.00461
   S        4.92124        -6.01822        -6.25277
   C        3.14800        -4.83510        -8.06476
  Cl        4.16846        -1.93171        -6.98566
   C        6.36516        -4.00674        -2.39024
   C        6.62404        -3.85136        -1.06217
   S        7.70821        -5.10853        -0.48163
   C        6.18244        -2.83247        -0.12383
   C        6.96263        -2.65128         1.03219
   C        6.64027        -1.66278         1.92786
   C        5.55504        -0.81109         1.69750
   C        5.47609         0.15063         2.82266
   O        4.69043         1.04222         3.01864
   N        6.52395        -0.18982         3.66661
   C        7.27819        -1.25946         3.20489
   O        8.23412        -1.72671         3.76843
   C        6.82472         0.52756         4.88728
   C        7.71815         1.73215         4.61392
   C        4.77771        -0.96335         0.57588
   C        5.05845        -1.99815        -0.33050
   C        4.12258        -2.11015        -1.43845
   C        3.57587        -3.23784        -1.92224
   C        2.71898        -3.21924        -3.06063
   N        2.29932        -2.14559        -3.66006
   C        1.58764        -2.45174        -4.74246
   C        1.43769        -3.82027        -5.02662
   S        2.24144        -4.75242        -3.83091
   N        0.73877        -4.12403        -6.11975
   C        0.32654        -3.04678        -6.71896
   S        0.78264        -1.51592        -5.93587
   C       -0.43787        -3.05410        -7.91327
   C       -0.92672        -1.98214        -8.60535
   C       -1.67936        -2.34933        -9.74428
   C       -2.35416        -1.50026       -10.64565
   C       -2.39236        -0.06660       -10.43920
   C       -2.58633         0.60791        -9.26737
   C       -2.56714         2.00889        -9.43750
   C       -2.35524         2.41853       -10.72231
   S       -2.18324         1.04663       -11.76303
   C       -2.26448         3.80076       -11.25531
  Cl       -2.79604         3.09571        -8.12064
   C       -2.99600        -2.11509       -11.71472
   C       -3.03929        -3.52539       -11.88837
   C       -2.39501        -4.37708       -10.96321
   C       -1.71218        -3.75726        -9.92278
   S       -0.85124        -4.58133        -8.64937
   C       -2.46107        -5.81948       -11.06035
   C       -1.47000        -6.72329       -10.79207
   C       -1.89956        -8.05718       -10.94200
   C       -3.21045        -8.19127       -11.30405
   S       -3.94097        -6.63694       -11.47993
   C       -3.98768        -9.43421       -11.53780
  Cl       -0.84842        -9.39640       -10.68659
   C       -3.76014        -3.89638       -13.04099
   C       -4.29788        -2.83504       -13.72418
   S       -3.88379        -1.30058       -12.96271
   C       -5.07828        -2.76071       -14.90288
   C       -5.71028        -3.73180       -15.62358
   C       -6.50517        -3.44940       -16.81320
   C       -6.44601        -2.32321       -17.59016
   C       -7.23141        -2.12476       -18.74587
   N       -7.84410        -1.89839       -19.68983
   C       -5.57455        -1.22977       -17.39507
   N       -4.88503        -0.31402       -17.32738
   C       -7.32722        -4.61987       -17.09072
   C       -6.95163        -5.65359       -16.18837
   C       -5.88437        -5.17147       -15.29554
   O       -5.29552        -5.84355       -14.47476
   C       -7.54574        -6.88247       -16.20850
   C       -8.57168        -7.13528       -17.14569
   C       -8.95950        -6.10317       -18.04839
   C       -8.32035        -4.84274       -18.00778
   C       -9.98853        -6.36476       -18.97589
   C      -10.60590        -7.58537       -19.01117
   C      -10.22329        -8.60059       -18.12168
   C       -9.22724        -8.38056       -17.20950
   H        9.08491        -9.45766        -6.28713
   H        9.74298        -9.19656        -3.78834
   H        8.12516        -7.64316         0.38248
   H       13.36391        -8.49149         0.20733
   H       12.83554       -10.07371        -0.36048
   H       12.50948        -9.58071         1.31110
   H        6.19844        -2.86906        -5.03965
   H        3.49296        -5.55592        -8.80381
   H        2.95313        -3.88376        -8.55556
   H        2.21324        -5.20603        -7.64127
   H        5.75349        -3.32993        -2.95180
   H        7.82182        -3.28001         1.21116
   H        7.32360        -0.17370         5.56035
   H        5.87540         0.85034         5.32178
   H        8.65614         1.41093         4.16675
   H        7.93304         2.24931         5.54464
   H        7.21999         2.42204         3.93671
   H        3.93387        -0.31328         0.40151
   H        3.79223        -1.17401        -1.87074
   H        3.80762        -4.20949        -1.51187
   H       -0.73564        -0.96618        -8.31206
   H       -2.78400         0.13386        -8.32382
   H       -2.49719         4.51382       -10.46835
   H       -2.96145         3.93907       -12.08048
   H       -1.26043         4.00328       -11.62784
   H       -0.46080        -6.45769       -10.53874
   H       -3.31391       -10.28602       -11.58958
   H       -4.54832        -9.36075       -12.46788
   H       -4.69875        -9.60044       -10.72797
   H       -3.88113        -4.90908       -13.37487
   H       -5.21961        -1.74206       -15.24685
   H       -7.23918        -7.65044       -15.51384
   H       -8.64128        -4.08092       -18.70020
   H      -10.27882        -5.58074       -19.65975
   H      -11.39318        -7.77560       -19.72508
   H      -10.72194        -9.55741       -18.16274
   H       -8.92810        -9.15830       -16.52201
*
