# ORCA input file
# SCF done       -275.153612100379          0.000498450374
! CAM-B3LYP def2-SVP def2/J RIJCOSX Grid4 TightSCF
%maxcore 5000
%tddft
    Mode sTDDFT
    Ethresh 5.0
    maxcore 5000
end

%pal
  nprocs 6
  end
* xyz 0 1
   C        4.66683         6.63418         4.39794
   C        4.73094         5.98305         3.19520
   C        5.83536         6.05841         2.32542
   N        6.70141         6.11339         1.57304
   C        3.71466         5.12343         2.72890
   N        2.92406         4.38960         2.33812
   C        5.77323         7.33469         5.03808
   C        5.52009         7.39349         6.43990
   C        6.41582         7.95489         7.30398
   C        7.61352         8.50519         6.79328
   C        7.84929         8.48892         5.38792
   C        6.91032         7.88979         4.51754
   C        9.03715         9.06314         4.89087
   C        9.96350         9.60289         5.74090
   C        9.73914         9.60138         7.12638
   C        8.58642         9.07225         7.64034
   C        4.19806         6.80401         6.72201
   O        3.66701         6.63269         7.79368
   C        3.60412         6.52601         5.37832
   C        2.25906         6.38040         5.26118
   C        1.46469         6.55593         4.09698
   C        1.80295         7.22449         2.94927
   C        0.75373         7.35259         2.02073
   C        0.79589         7.98816         0.75538
   C        2.03312         8.42684         0.15124
   C        2.23690         9.37634        -0.81786
   C        3.58446         9.49496        -1.20451
   C        4.43900         8.64003        -0.56635
   S        3.55677         7.66082         0.54249
   C        5.91027         8.52458        -0.71627
  Cl        4.11449        10.63323        -2.38310
   C       -0.44255         8.14501         0.13192
   C       -1.65656         7.60988         0.63981
   C       -1.65757         6.84361         1.82845
   C       -0.45080         6.78595         2.51783
   S       -0.20913         6.05040         4.07593
   C       -2.85905         6.18105         2.27862
   C       -3.80498         5.55950         1.50933
   C       -4.85271         5.00839         2.27494
   C       -4.73129         5.20653         3.62191
   S       -3.27880         6.07932         3.96747
   C       -5.64084         4.76979         4.70967
  Cl       -6.17009         4.16313         1.55900
   C       -2.77825         7.99844        -0.13001
   C       -2.46470         8.81824        -1.17933
   S       -0.73527         9.05247        -1.31930
   C       -3.34103         9.48402        -2.08705
   N       -4.49266         8.98007        -2.48550
   C       -4.95815         9.83410        -3.42601
   C       -4.02512        10.95517        -3.64070
   C       -4.54191        11.87618        -4.66664
   O       -4.02659        12.87864        -5.10745
   C       -5.83277        11.25565        -5.02457
   C       -6.04061        10.01164        -4.24976
   N       -7.23714         9.45219        -4.55832
   C       -7.77291        10.25495        -5.44354
   C       -6.95495        11.40626        -5.77253
   C       -3.00905        10.77525        -2.74726
   C       -1.88181        11.55348        -2.35542
   C       -1.13616        12.36700        -3.13276
   C        0.10601        12.89397        -2.66333
   C        0.75195        12.57014        -1.49643
   C        2.04132        13.12174        -1.36722
   C        2.99294        12.88693        -0.34809
   C        2.74239        12.04131         0.80030
   C        3.65949        11.33235         1.52819
   C        3.09796        10.67761         2.64245
   C        1.75533        10.85854         2.79648
   S        1.15951        11.86318         1.52062
   C        0.84889        10.34926         3.85609
  Cl        4.06856         9.75460         3.73001
   C        4.22726        13.51995        -0.50174
   C        4.53376        14.36144        -1.60445
   C        3.59849        14.54913        -2.65152
   C        2.37007        13.92713        -2.49291
   S        1.07358        13.95052        -3.65936
   C        3.93268        15.33042        -3.82131
   C        5.11119        15.34559        -4.51395
   C        5.08364        16.22688        -5.61503
   C        3.90320        16.89648        -5.77165
   S        2.78223        16.42301        -4.54236
   C        3.53169        17.89730        -6.80241
  Cl        6.43416        16.42964        -6.66373
   C        5.79463        14.96080        -1.46102
   C        6.47459        14.58545        -0.31706
   S        5.54801        13.44173         0.62685
   C        7.74433        15.10687         0.00909
   C        8.55750        14.85391         1.07862
   C        9.83521        15.49806         1.34010
   C       10.45415        16.45608         0.57971
   C       11.69803        17.03883         0.90375
   N       12.70439        17.55336         1.10513
   C        9.96415        17.01104        -0.62111
   N        9.64121        17.51922        -1.59956
   C       10.35530        14.95738         2.59252
   C        9.42808        13.99999         3.09317
   C        8.29727        13.88678         2.16163
   O        7.35263        13.12743         2.27193
   C        9.62561        13.34372         4.27368
   C       10.78702        13.62391         5.02688
   C       11.73455        14.56067         4.52304
   C       11.50029        15.22380         3.29606
   C       12.89825        14.81864         5.27587
   C       13.11240        14.18959         6.47220
   C       12.16968        13.28028         6.97489
   C       11.03062        13.00471         6.26826
   H        6.21489         7.97986         8.36473
   H        7.10632         7.89415         3.45660
   H        9.20627         9.05872         3.82417
   H       10.87528        10.03152         5.35107
   H       10.48601        10.01918         7.78567
   H        8.40671         9.07500         8.70552
   H        1.72281         6.20892         6.18888
   H        2.75713         7.69713         2.82933
   H        1.47797        10.00813        -1.23501
   H        6.17326         8.42935        -1.76912
   H        6.28622         7.66130        -0.17192
   H        6.39845         9.42157        -0.33223
   H       -3.73955         5.45326         0.44235
   H       -6.56548         4.38861         4.28371
   H       -5.86822         5.59976         5.37658
   H       -5.17687         3.98120         5.30241
   H       -3.79544         7.75969         0.11850
   H       -8.73884        10.03338        -5.86344
   H       -7.21831        12.18106        -6.46508
   H       -1.58713        11.41987        -1.32416
   H       -1.42285        12.57206        -4.15408
   H        0.32017        11.92371        -0.75806
   H        4.69891        11.24021         1.27960
   H        1.39298         9.67905         4.51734
   H        0.00716         9.81284         3.41909
   H        0.44903        11.17519         4.44473
   H        5.95303        14.71899        -4.28399
   H        4.35223        18.02338        -7.50417
   H        3.31050        18.85934        -6.34088
   H        2.64426        17.57536        -7.34589
   H        6.19631        15.67782        -2.15439
   H        8.09775        15.82926        -0.71683
   H        8.90337        12.62424         4.63132
   H       12.23460        15.93275         2.94907
   H       13.61689        15.52641         4.88973
   H       14.00721        14.39380         7.04070
   H       12.35059        12.80195         7.92604
   H       10.29424        12.31293         6.64977
*
