# ORCA input file
# SCF done       -185.932711557898          0.000838671184
! CAM-B3LYP def2-SVP def2/J RIJCOSX Grid4 TightSCF
%maxcore 5000
%tddft
    Mode sTDDFT
    Ethresh 5.0
    maxcore 5000
end

%pal
  nprocs 6
  end
* xyz 0 1
   C       -3.99957        -1.86943        -3.21179
   O       -3.75216        -3.02966        -2.92313
   C       -4.08686        -1.30523        -4.57483
   C       -4.39016         0.06548        -4.48759
   C       -4.52107         0.81011        -5.64954
   C       -4.34765         0.17741        -6.87285
   C       -4.04906        -1.17618        -6.93292
   C       -3.91326        -1.94458        -5.78357
  Br       -3.82098        -1.99988        -8.63014
   C       -4.51061         0.43050        -3.07464
   C       -4.79959         1.68918        -2.60509
   C       -5.02252         2.80900        -3.43189
   N       -5.21519         3.75816        -4.04874
   C       -4.91738         2.04865        -1.24779
   N       -5.02833         2.41408        -0.16363
   C       -4.27105        -0.76418        -2.30117
   C       -4.29615        -0.86320        -0.92419
   C       -4.07620        -1.96195        -0.10421
   S       -3.67889        -3.60076        -0.57964
   C       -3.60825        -4.15606         1.07436
   C       -3.88561        -3.10692         1.95073
   C       -4.14756        -1.88104         1.30529
   C       -4.42902        -0.83819         2.21368
   C       -4.38118        -1.26552         3.51042
   C       -4.60796        -0.51234         4.74408
   O       -4.51348        -0.99444         5.84984
   O       -4.92812         0.76033         4.50399
   C       -5.16499         1.56898         5.64805
   S       -3.99012        -2.95590         3.67545
   C       -3.30894        -5.50507         1.38355
   C       -3.24463        -5.96802         2.68063
   C       -2.96525        -7.27444         3.04723
   C       -2.70809        -8.31636         2.05038
   C       -2.71592        -8.09101         0.71720
   S       -3.02808        -6.56174         0.00141
   C       -2.47982        -9.49785         2.80705
   C       -2.59146        -9.22322         4.17755
   C       -2.34859       -10.37576         4.96031
   C       -2.07644       -11.46026         4.19007
   S       -2.09751       -11.13978         2.48806
   C       -2.90026        -7.83114         4.34582
   C       -3.11910        -7.06817         5.51669
   C       -3.26560        -7.52244         6.78509
   C       -3.55080        -6.70288         7.92929
   C       -3.37529        -5.29066         7.97371
   O       -2.79026        -4.69134         6.91097
   C       -2.45929        -3.31904         6.98428
   C       -3.78701        -4.60282         9.09571
   C       -4.29991        -5.23683        10.23786
   C       -4.43789        -6.64689        10.20838
   C       -4.06746        -7.33252         9.06693
   O       -4.99249        -7.23338        11.29865
   C       -5.18203        -8.62954        11.30590
   C       -4.71978        -4.39665        11.31298
   C       -4.91163        -4.60154        12.64601
   C       -5.72747        -3.60057        13.38819
   O       -6.08549        -2.51525        12.99356
   C       -6.03720        -4.23713        14.68795
   C       -5.35701        -5.46483        14.77762
   C       -4.54991        -5.64651        13.57220
   C       -3.50592        -6.52576        13.44495
   C       -3.19484        -7.52613        14.38574
   N       -2.91856        -8.38132        15.10071
   C       -2.59227        -6.49513        12.37407
   N       -1.81695        -6.49143        11.52753
   C       -5.51440        -6.25489        15.90637
   C       -6.34433        -5.80787        16.92392
   C       -6.99839        -4.58796        16.81806
   C       -6.85714        -3.77937        15.69810
  Br       -8.12006        -4.01458        18.24132
   H       -4.75207         1.86239        -5.62745
   H       -4.44712         0.74294        -7.78649
   H       -3.68080        -2.99732        -5.82485
   H       -4.51861         0.04281        -0.37672
   H       -4.65665         0.17742         1.94531
   H       -5.44015         2.55009         5.27065
   H       -4.26316         1.63121         6.26072
   H       -5.97150         1.14647         6.25092
   H       -3.42840        -5.24944         3.46462
   H       -2.52544        -8.86977        -0.00465
   H       -2.35897       -10.41174         6.03385
   H       -1.85545       -12.45772         4.51656
   H       -3.21738        -6.00766         5.35351
   H       -3.24702        -8.58725         6.97216
   H       -1.86635        -3.12162         6.09224
   H       -1.85862        -3.10151         7.87121
   H       -3.34959        -2.68546         6.96655
   H       -3.69376        -3.52936         9.12961
   H       -4.18728        -8.40360         9.02519
   H       -5.62196        -8.86055        12.27523
   H       -4.23121        -9.16157        11.20623
   H       -5.86718        -8.94509        10.51372
   H       -4.99687        -3.39146        11.00159
   H       -5.01656        -7.20587        16.00557
   H       -6.48326        -6.41183        17.80751
   H       -7.36420        -2.83081        15.61203
*
