# ORCA input file
# SCF done       -136.022273441100          0.000660512695
! CAM-B3LYP def2-SVP def2/J RIJCOSX Grid4 TightSCF
%maxcore 5000
%tddft
    Mode sTDDFT
    Ethresh 5.0
    maxcore 5000
end

%pal
  nprocs 6
  end
* xyz 0 1
   C        1.23897         2.90724        -3.57015
   C       -0.10979         3.12544        -3.62203
   F       -0.71277         3.26066        -4.81569
   C       -0.90225         3.21475        -2.46886
   C       -0.30736         3.08184        -1.24541
   C        1.08052         2.85818        -1.13335
   C        1.86927         2.76894        -2.31805
   C        3.26381         2.55082        -2.23132
   C        3.84983         2.43000        -0.99943
   C        3.05368         2.50982         0.18051
   C        1.70547         2.72018         0.12533
   C        3.91047         2.32014         1.36315
   O        3.60191         2.37522         2.53014
   C        5.25889         1.97737         0.81749
   C        5.24470         2.24409        -0.61021
   C        6.33171         2.50056        -1.40106
   C        7.65770         2.55219        -0.92342
   N        8.74664         2.65851        -0.57719
   C        6.24520         2.83232        -2.76967
   N        6.22432         3.08820        -3.88811
   C        6.17678         1.41577         1.63691
   C        7.37891         0.71491         1.28611
   C        8.52834         0.75340         2.09283
   N        9.62205         0.09724         1.79956
   C        9.63904        -0.61959         0.67343
   N        8.58783        -0.76558        -0.13644
   C        7.48508        -0.13016         0.16939
   C       10.86863        -1.30311         0.32778
   C       12.04282        -1.13840         1.07586
   N       13.15546        -1.75891         0.76767
   C       13.14289        -2.56235        -0.30331
   N       12.08043        -2.78508        -1.08699
   C       10.96639        -2.16672        -0.77206
   C       14.38526        -3.21663        -0.61165
   C       14.52158        -4.08752        -1.66119
   C       15.71100        -4.73429        -1.99309
   C       16.90062        -4.56582        -1.14056
   C       16.96516        -3.74174        -0.06790
   S       15.66842        -2.77148         0.48814
   C       17.88376        -5.42859        -1.68906
   C       17.35802        -6.08846        -2.80342
   C       18.29782        -6.96299        -3.39592
   C       19.48098        -6.94806        -2.73070
   S       19.51134        -5.87723        -1.36713
   C       16.00896        -5.64920        -3.01969
   C       15.21854        -6.11732        -4.10999
   C       14.11856        -5.53254        -4.62770
   C       13.34937        -6.04247        -5.73478
   C       13.55722        -7.27476        -6.37182
   N       12.82435        -7.68531        -7.38862
   C       11.85690        -6.88251        -7.79750
   N       11.54663        -5.70862        -7.27425
   C       12.28129        -5.29782        -6.25983
   H        1.81769         2.84696        -4.47859
   H       -1.96190         3.38647        -2.57228
   H       -0.89627         3.14712        -0.34296
   H        3.83392         2.47656        -3.14384
   H        1.12347         2.78186         1.03265
   H        5.93434         1.44749         2.69530
   H        8.55798         1.35776         2.99035
   H        6.63025        -0.32160        -0.46931
   H       12.06343        -0.48465         1.93682
   H       10.10833        -2.35404        -1.40355
   H       13.61947        -4.27420        -2.22454
   H       17.86734        -3.64319         0.51580
   H       18.11552        -7.57037        -4.26394
   H       20.36727        -7.50935        -2.95397
   H       15.59864        -7.01756        -4.57618
   H       13.77333        -4.58648        -4.23574
   H       14.33323        -7.95943        -6.05466
   H       11.26104        -7.21985        -8.63513
   H       12.01620        -4.33478        -5.83909
*
