# ORCA input file
# SCF done       -250.457802366429          0.000558360968
! CAM-B3LYP def2-SVP def2/J RIJCOSX Grid4 TightSCF
%maxcore 5000
%tddft
    Mode sTDDFT
    Ethresh 5.0
    maxcore 5000
end

%pal
  nprocs 6
  end
* xyz 0 1
   C       -1.24997        -0.15657        -7.95451
   C       -2.04254         0.85468        -8.40154
   C       -2.00473         1.96147        -7.53020
   C       -1.16647         1.74625        -6.42931
   S       -0.43511         0.20434        -6.46507
   C       -1.18873         2.90724        -5.60682
   C       -2.04226         3.85010        -6.19129
   C       -2.58227         3.28617        -7.42503
   C       -3.44374         3.89045        -8.29412
   C       -3.93544         5.19526        -8.08349
   N       -4.33649         6.25752        -7.92217
   C       -3.90056         3.25152        -9.46539
   N       -4.27498         2.73819       -10.42023
   C       -2.13583         5.03339        -5.45696
   C       -1.35505         4.99831        -4.31634
   S       -0.49391         3.47436        -4.15108
   C       -1.19706         6.01325        -3.34035
   S       -2.08566         7.51933        -3.48288
   C       -1.35384         8.08893        -2.03860
   C       -0.47216         7.16347        -1.48152
   C       -0.38635         5.98966        -2.21761
   C        0.15081         7.71087        -0.21865
   C       -0.21800         6.85722         0.99778
   C        1.67090         7.83141        -0.35519
   C       -0.50632         9.07034        -0.15557
   C       -1.37690         9.24853        -1.23050
   S       -2.15551        10.77651        -1.20471
   C       -1.30058        11.19612         0.27003
   C       -0.46350        10.17184         0.68749
   C       -1.48573        12.44711         0.91055
   C       -2.34327        13.40623         0.49259
   C       -2.53448        14.66374         1.13068
   C       -1.90542        15.19563         2.22315
   C       -2.36318        16.48450         2.58064
   C       -1.90850        17.30965         3.63070
   C       -0.79063        16.94943         4.47909
   C       -0.63505        17.19183         5.81372
   C        0.61928        16.76968         6.30519
   C        1.43814        16.21332         5.36743
   S        0.64354        16.19704         3.82907
   C        2.81259        15.67469         5.52831
  Cl        1.06382        16.95171         7.95927
   C       -2.57149        18.52110         3.79896
   C       -3.62168        18.96063         2.95504
   C       -4.04578        18.15725         1.87812
   C       -3.41303        16.92654         1.73573
   S       -3.75135        15.75405         0.49562
   C       -5.06453        18.58693         0.94158
   C       -6.03762        17.83180         0.35221
   C       -6.82167        18.56815        -0.56182
   C       -6.45914        19.87657        -0.69386
   S       -5.11740        20.22407         0.34217
   C       -7.04911        20.92482        -1.56427
  Cl       -8.12777        17.85819        -1.43124
   C       -4.12520        20.22257         3.35400
   C       -3.48017        20.75719         4.42920
   S       -2.20650        19.71057         5.02017
   C       -3.74854        21.99436         5.08057
   C       -3.09707        22.52634         6.15439
   C       -3.61867        23.77121         6.57885
   C       -3.17475        24.58137         7.64519
   C       -2.00064        24.25863         8.43042
   C       -1.80771        24.44460         9.76928
   C       -0.51279        24.07418        10.19177
   C        0.29954        23.61676         9.19623
   S       -0.55188        23.62983         7.68921
   C        1.70563        23.14727         9.27924
  Cl       -0.01511        24.19801        11.83601
   C       -3.91598        25.72973         7.90006
   C       -5.03691        26.11877         7.12333
   C       -5.44245        25.33967         6.01821
   C       -4.73344        24.16593         5.79682
   S       -5.05948        23.01554         4.52909
   C       -6.53769        25.77357         5.17610
   C       -6.82711        27.04413         4.76557
   C       -7.99975        27.11158         3.98348
   C       -8.61429        25.91026         3.78297
   S       -7.72645        24.65023         4.57291
   C       -9.86035        25.61741         3.03053
  Cl       -8.59556        28.59954         3.35334
   C       -5.63388        27.30311         7.60233
   C       -4.98964        27.86184         8.67656
   S       -3.60379        26.89086         9.16006
   C       -5.27754        29.04163         9.39780
   C       -6.23107        29.97658         9.10609
   C       -6.48155        31.15702         9.86222
   C       -7.46372        31.95073         9.36674
   C       -8.06234        31.45472         8.18031
   S       -7.31971        29.93092         7.72794
   C       -9.07199        32.01023         7.43555
   C       -9.77141        33.22499         7.68988
   C      -10.72254        33.51972         6.77823
   C      -10.85102        32.55634         5.72084
   S       -9.67935        31.25398         5.97593
   C      -11.69954        32.58567         4.68501
   H       -1.08344        -1.11317        -8.40747
   H       -2.62055         0.80518        -9.30616
   H       -2.73368         5.88636        -5.72327
   H        0.23068         5.14338        -1.97254
   H        0.19830         5.85831         0.89327
   H       -1.29888         6.77719         1.08896
   H        0.17584         7.30932         1.90468
   H        2.11445         6.84639        -0.47769
   H        2.08969         8.29767         0.53318
   H        1.92506         8.43901        -1.22077
   H        0.14056        10.24929         1.57370
   H       -0.88496        12.60754         1.79526
   H       -2.94439        13.22421        -0.38893
   H       -1.13944        14.67221         2.76289
   H       -1.39251        17.62228         6.44132
   H        3.09089        15.69117         6.57912
   H        3.52806        16.27405         4.96528
   H        2.87031        14.65121         5.16017
   H       -6.22143        16.79838         0.57902
   H       -7.98774        20.56870        -1.98180
   H       -6.37253        21.16817        -2.38404
   H       -7.23059        21.83633        -0.99727
   H       -4.94771        20.72364         2.87766
   H       -2.27616        22.02104         6.62931
   H       -2.56336        24.79811        10.44539
   H        2.05514        23.21899        10.30618
   H        2.35076        23.75145         8.64202
   H        1.78403        22.11165         8.94948
   H       -6.21291        27.90068         4.97208
   H      -10.15537        26.49318         2.45772
   H      -10.66928        25.35793         3.71393
   H       -9.71079        24.77823         2.35349
   H       -6.54078        27.69960         7.19056
   H       -4.65984        29.23330        10.26533
   H       -5.91539        31.37221        10.75148
   H       -7.77520        32.87838         9.81249
   H       -9.53948        33.83425         8.54557
   H      -11.35215        34.39149         6.80383
   H      -12.39652        33.39680         4.56860
   H      -11.71428        31.80732         3.94427
*
