# ORCA input file
# SCF done       -280.733047777021          0.000347528272
! CAM-B3LYP def2-SVP def2/J RIJCOSX Grid4 TightSCF
%maxcore 5000
%tddft
    Mode sTDDFT
    Ethresh 5.0
    maxcore 5000
end

%pal
  nprocs 6
  end
* xyz 0 1
   C       -0.83684        -4.61891        -5.05714
   C       -0.62312        -3.36477        -4.61061
   C        0.70284        -3.16436        -4.12539
   C        1.26667        -1.99732        -3.57890
   C        0.50716        -0.78006        -3.36885
   C        0.92844         0.50619        -3.54624
   C       -0.05239         1.45700        -3.19057
   C       -1.22039         0.92332        -2.73200
   S       -1.12007        -0.80567        -2.74243
   C       -2.44975         1.62066        -2.27645
  Cl        0.22237         3.15197        -3.33040
   C        2.61569        -2.05815        -3.23466
   C        3.39806        -3.22804        -3.38682
   C        2.81763        -4.41510        -3.87409
   C        1.48401        -4.33772        -4.26047
   S        0.54633        -5.64624        -4.92811
   C        3.58135        -5.64491        -3.92846
   C        4.44221        -6.12897        -2.98493
   C        5.02018        -7.36159        -3.35658
   C        4.61967        -7.82803        -4.57462
   S        3.48873        -6.72853        -5.28898
   C        5.03166        -9.07075        -5.27481
  Cl        6.13469        -8.19582        -2.34210
   C        4.74948        -3.01225        -3.02087
   C        4.99349        -1.75404        -2.55444
   S        3.55095        -0.76226        -2.54130
   C        6.23775        -1.18085        -2.11887
   C        7.49139        -1.71367        -2.37808
   F        7.61338        -2.85294        -3.08358
   C        8.68909        -1.11531        -1.95595
   F        9.82567        -1.74920        -2.29773
   C        8.75287         0.05904        -1.22021
   C        7.48558         0.62177        -0.92931
   C        6.27285         0.02324        -1.37930
   N        5.26328         0.79211        -0.95095
   N        5.84428         1.76108        -0.30370
   N        7.14709         1.72702        -0.24901
   C        5.09583         2.81698         0.30467
   C        9.97144         0.66928        -0.77075
   C       10.05815         1.74330         0.06869
   C       11.38461         2.12252         0.37457
   C       11.81139         3.17808         1.20782
   C       10.85141         3.95869         1.95923
   C        9.70760         3.52268         2.56700
   C        8.98258         4.56889         3.17411
   C        9.55333         5.80179         3.04975
   S       11.03302         5.68032         2.15943
   C        9.07315         7.10840         3.56619
  Cl        7.48917         4.29232         3.98996
   C       13.18112         3.41175         1.25693
   C       14.12396         2.64407         0.52584
   C       13.70058         1.56603        -0.27787
   C       12.33081         1.32269        -0.31431
   S       11.54877         0.08059        -1.24778
   C       14.62336         0.75732        -1.04835
   C       14.56562        -0.58733        -1.28075
   C       15.60289        -1.04313        -2.12271
   C       16.44935        -0.06535        -2.55669
   S       15.96979         1.46406        -1.90229
   C       17.63790        -0.18702        -3.43933
  Cl       15.77253        -2.70007        -2.55802
   C       15.44685         3.07726         0.76661
   C       15.53395         4.12024         1.64332
   S       13.96517         4.62179         2.23041
   C       16.75199         4.76813         2.04206
   C       16.87095         5.63296         3.11921
   F       15.79138         5.90908         3.87302
   C       18.07521         6.24892         3.49882
   F       18.02092         7.05212         4.57714
   C       19.26892         6.08092         2.81431
   C       19.17023         5.22471         1.69443
   C       17.95852         4.56949         1.32814
   N       18.22592         3.83114         0.24131
   N       19.48953         4.04565         0.00194
   N       20.10965         4.85171         0.81582
   C       20.15488         3.41141        -1.09340
   C       20.51688         6.70217         3.16953
   C       20.89124         7.23731         4.36657
   C       22.20754         7.76173         4.36372
   C       22.88967         8.38496         5.42597
   C       22.31430         8.43369         6.75511
   C       21.67733         7.42714         7.42217
   C       21.25454         7.81258         8.71261
   C       21.55117         9.10295         9.04158
   S       22.38578         9.87223         7.73381
   C       21.25058         9.83529        10.29759
  Cl       20.43817         6.72771         9.77299
   C       24.14607         8.90600         5.13646
   C       24.74963         8.80956         3.86018
   C       24.07204         8.17574         2.80322
   C       22.81838         7.64467         3.09142
   S       21.78150         6.81632         1.96488
   C       24.64960         8.11312         1.47437
   C       25.29278         9.10869         0.79767
   C       25.72272         8.70494        -0.48523
   C       25.42347         7.41201        -0.79932
   S       24.57528         6.66329         0.51290
   C       25.71863         6.66885        -2.05105
  Cl       26.55694         9.76979        -1.55316
   C       26.06611         9.35844         3.86306
   C       26.42794         9.85128         5.06484
   S       25.20702         9.68815         6.27734
   H       -1.73882        -5.02409        -5.47232
   H       -1.37306        -2.59632        -4.63114
   H        1.88705         0.77706        -3.94674
   H       -2.67855         1.36148        -1.24318
   H       -3.30350         1.33504        -2.89029
   H       -2.30740         2.69615        -2.34814
   H        4.62937        -5.65292        -2.04025
   H        5.60475        -8.83418        -6.17132
   H        4.15892        -9.64781        -5.57665
   H        5.64851        -9.67542        -4.61446
   H        5.50647        -3.76597        -3.12228
   H        5.15219         3.71765        -0.30927
   H        5.51322         3.03565         1.28672
   H        4.06002         2.49634         0.38629
   H        9.18377         2.25397         0.42187
   H        9.40750         2.49327         2.62318
   H        8.94958         7.82171         2.75223
   H        9.79158         7.52634         4.27078
   H        8.11903         6.97782         4.07104
   H       13.83570        -1.24485        -0.84700
   H       18.55619        -0.03177        -2.87215
   H       17.60285         0.55454        -4.23565
   H       17.66510        -1.18096        -3.87857
   H       16.32060         2.63926         0.32544
   H       20.78133         2.59505        -0.72977
   H       20.78711         4.13903        -1.59950
   H       19.39523         3.02168        -1.76759
   H       20.25101         7.27305         5.22724
   H       21.54824         6.43458         7.03192
   H       20.57622        10.66910        10.10374
   H       22.16387        10.23687        10.73466
   H       20.78138         9.16186        11.01059
   H       25.42218        10.10612         1.17513
   H       26.44245         7.22226        -2.64449
   H       24.81144         6.53866        -2.64189
   H       26.11880         5.68213        -1.82592
   H       26.71185         9.35315         3.00479
   H       27.35833        10.31180         5.33420
*
