# ORCA input file
# SCF done       -218.594107028155          0.000384089708
! CAM-B3LYP def2-SVP def2/J RIJCOSX Grid4 TightSCF
%maxcore 5000
%tddft
    Mode sTDDFT
    Ethresh 5.0
    maxcore 5000
end

%pal
  nprocs 6
  end
* xyz 0 1
   C        2.80932        -8.39524         6.07391
   C        2.34037        -7.63331         5.06526
   C        3.05192        -6.40626         4.91845
   C        2.85813        -5.39597         3.95886
   C        1.76785        -5.46363         3.00468
   C        0.47079        -5.81899         3.23521
   C       -0.32115        -5.77158         2.06670
   C        0.35163        -5.39068         0.94299
   S        2.00952        -5.06888         1.32515
   C       -0.15814        -5.23555        -0.44272
  Cl       -1.99864        -6.16672         2.07925
   C        3.75390        -4.33341         3.98356
   C        4.80410        -4.22473         4.92742
   C        4.99156        -5.23097         5.89346
   C        4.09586        -6.29512         5.86626
   S        4.14214        -7.68561         6.91601
   C        6.07570        -5.15158         6.85246
   C        7.37382        -4.79696         6.62549
   C        8.15559        -4.81442         7.80133
   C        7.47408        -5.17138         8.92761
   S        5.82074        -5.50928         8.53833
   C        7.97254        -5.28684        10.32145
  Cl        9.83154        -4.41292         7.79405
   C        5.52787        -3.01661         4.77371
   C        5.07254        -2.23192         3.75478
   S        3.70642        -2.94987         2.92448
   C        5.58435        -0.97514         3.32757
   C        5.07763        -0.14403         2.35206
   C        5.85451         1.00680         2.18929
   C        6.96369         1.04204         3.04681
   S        7.04751        -0.32882         4.05964
   C        7.69646         2.23386         2.79258
   C        7.04464         2.94955         1.78119
   C        5.86238         2.20820         1.37022
   C        4.95345         2.56727         0.41805
   C        3.84106         1.76276         0.09476
   N        2.93378         1.11502        -0.17465
   C        5.06515         3.77251        -0.30547
   N        5.15260         4.75389        -0.89285
   C        7.70690         4.13331         1.43973
   C        8.85794         4.32329         2.17372
   S        9.12087         3.01375         3.31719
   C        9.81125         5.40051         2.06784
   C        9.50383         6.54759         1.31993
   C       10.44562         7.53729         1.18620
   C       11.70876         7.41327         1.78394
   C       12.01339         6.29608         2.54919
   C       11.06421         5.30475         2.68587
   C       12.49583         8.57155         1.42572
   C       11.72130         9.41507         0.60693
   C       10.33186         8.84029         0.41598
   C        9.25913         9.68739         1.13911
   C        8.93661        11.04699         0.53546
   C        9.95672         8.50397        -1.04742
   C       10.45586         9.45018        -2.13262
   C       12.27053        10.58405         0.13405
   C       13.59977        10.92062         0.43406
   C       14.34658        10.06847         1.25475
   C       13.80219         8.90378         1.75437
   C       14.13578        12.13736        -0.14118
   C       15.41714        12.53202        -0.12265
   C       15.93487        13.73390        -0.75222
   C       17.15898        14.26045        -0.29838
   O       17.76941        13.66406         0.80295
   C       17.19486        14.04506         2.03506
   C       17.73654        15.36633        -0.92746
   O       18.92095        15.95301        -0.60078
   C       19.88102        15.26789         0.17153
   C       17.04859        15.98354        -1.98716
   C       15.82657        15.48086        -2.40236
   C       15.28271        14.36121        -1.81077
   C       17.64473        17.15454        -2.66429
   C       16.97447        18.38320        -2.62143
   O       15.83154        18.37988        -1.87274
   C       14.85312        19.38081        -2.03066
   C       17.53675        19.49157        -3.28151
   O       16.87883        20.69663        -3.19356
   C       17.41223        21.80791        -3.86632
   C       18.72575        19.33068        -3.98101
   C       19.37647        18.10941        -4.01640
   C       18.84346        17.02617        -3.35188
   H        2.45703        -9.35703         6.39170
   H        1.53302        -7.92966         4.42187
   H        0.07687        -6.06531         4.20394
   H       -1.20962        -5.50926        -0.48026
   H        0.39901        -5.87095        -1.13023
   H       -0.04848        -4.20415        -0.77647
   H        7.77559        -4.57215         5.65481
   H        9.02579        -5.01993        10.35761
   H        7.85237        -6.30584        10.68786
   H        7.41603        -4.62485        10.98401
   H        6.34124        -2.72324         5.41220
   H        4.18808        -0.37916         1.79572
   H        7.37136         4.80894         0.67535
   H        8.53583         6.64583         0.85450
   H       12.97838         6.19626         3.02263
   H       11.29318         4.42311         3.26806
   H        9.59465         9.83027         2.17046
   H        8.34054         9.09643         1.17399
   H        9.81136        11.69005         0.52485
   H        8.17175        11.53220         1.13916
   H        8.55115        10.94720        -0.47517
   H        8.86857         8.43306        -1.10644
   H       10.35864         7.51160        -1.27025
   H       10.08542        10.46120        -1.99477
   H       10.10628         9.09287        -3.09968
   H       11.54234         9.47362        -2.15421
   H       11.70504        11.25635        -0.49150
   H       15.36340        10.32543         1.50801
   H       14.38754         8.25515         2.38934
   H       13.40476        12.75949        -0.64221
   H       16.16256        11.93534         0.38531
   H       16.13160        13.78550         2.08090
   H       17.30008        15.12307         2.20629
   H       17.73795        13.49922         2.80555
   H       20.81876        15.79711        -0.00395
   H       19.98285        14.22641        -0.13965
   H       19.64806        15.30177         1.23905
   H       15.31509        15.96505        -3.22001
   H       14.35681        13.95324        -2.18403
   H       13.98159        19.01141        -1.48901
   H       14.59072        19.52785        -3.08120
   H       15.16941        20.33435        -1.60306
   H       16.72348        22.62716        -3.66279
   H       17.46419        21.64176        -4.94742
   H       18.40590        22.07130        -3.48946
   H       19.16436        20.16858        -4.49833
   H       20.30174        18.01638        -4.56416
   H       19.33884        16.06837        -3.37071
*
