# ORCA input file
# SCF done       -248.824718476077          0.000541353263
! CAM-B3LYP def2-SVP def2/J RIJCOSX Grid4 TightSCF
%maxcore 5000
%tddft
    Mode sTDDFT
    Ethresh 5.0
    maxcore 5000
end

%pal
  nprocs 6
  end
* xyz 0 1
   C        2.36324         0.65872         0.04357
   C        1.51380        -0.30786         0.51417
   C        1.84112        -1.67982         0.57862
   N        2.03650        -2.80791         0.66232
   C        0.19073        -0.11822         0.96859
   N       -0.89456        -0.07265         1.34231
   C        3.69277         0.40581        -0.49765
   C        4.20367         1.62541        -1.02150
   C        5.43352         1.70348        -1.60932
   C        6.22870         0.53991        -1.69810
   C        5.72868        -0.68525        -1.16948
   C        4.45008        -0.73417        -0.56843
   C        6.53125        -1.84084        -1.26033
   C        7.76701        -1.79071        -1.84572
   C        8.25803        -0.58373        -2.36589
   C        7.50526         0.55680        -2.29363
   C        3.22392         2.70392        -0.81747
   O        3.35524         3.85091        -1.19330
   C        2.09499         2.08868        -0.07095
   C        1.02042         2.69432         0.51407
   C        0.58398         4.04049         0.51458
   C        1.03510         5.15935        -0.13937
   C        0.29001         6.32091         0.13989
   C        0.50016         7.62091        -0.37450
   C        1.51242         7.90634        -1.36818
   C        2.31486         9.01036        -1.45613
   C        3.16315         8.97692        -2.58156
   C        3.01202         7.87100        -3.36973
   S        1.80282         6.83072        -2.70806
   C        3.72779         7.51642        -4.62050
  Cl        4.28965        10.23349        -2.92048
   C       -0.32833         8.61887         0.12210
   C       -1.36895         8.37878         1.05595
   C       -1.62119         7.07046         1.51873
   C       -0.75738         6.07691         1.06951
   S       -0.81923         4.40274         1.51845
   C       -2.73965         6.79263         2.39537
   C       -4.00437         7.30580         2.32527
   C       -4.84859         6.81184         3.34200
   C       -4.24824         5.93181         4.19592
   S       -2.59853         5.68794         3.73513
   C       -4.83388         5.21881         5.35835
  Cl       -6.49693         7.29290         3.48228
   C       -2.03609         9.57144         1.41865
   C       -1.57073        10.67980         0.76732
   S       -0.26027        10.30082        -0.33092
   C       -2.01081        12.02379         0.90520
   C       -1.56253        13.12474         0.20168
   C       -2.20726        14.29592         0.59927
   C       -3.15228        14.08180         1.61805
   S       -3.25154        12.43882         2.07734
   C       -3.74185        15.32455         1.95760
   C       -3.17087        16.32500         1.14903
   C       -2.19152        15.71027         0.26581
   C       -1.43255        16.33211        -0.68109
   C       -0.51109        15.63104        -1.48799
   N        0.23584        15.06381        -2.14685
   C       -1.52818        17.72027        -0.91547
   N       -1.61746        18.84768        -1.10392
   C       -3.67272        17.59551         1.41288
   C       -4.63092        17.58165         2.41540
   S       -4.89376        15.95440         3.04650
   C       -5.33633        18.67073         2.97873
   S       -5.98744        18.55402         4.56900
   C       -6.58209        20.19430         4.56602
   C       -6.25388        20.82390         3.34229
   C       -5.58866        19.94451         2.43160
   C       -5.33243        20.37164         1.11751
   C       -5.63868        21.65221         0.74887
   S       -5.32299        22.18784        -0.92396
   C       -6.15541        22.57968         1.69064
   O       -6.35214        23.87024         1.36894
   C       -6.47777        22.15220         2.95909
   C       -7.32513        20.58911         5.68379
   C       -8.04080        21.74621         5.85762
   C       -8.80930        21.98117         7.00076
   C       -9.66194        23.03834         7.21726
   C      -10.10579        23.34884         8.59432
   O       -9.97225        22.65964         9.57958
   C      -10.70710        24.70450         8.51522
   C      -10.70301        25.12920         7.17466
   C      -11.14191        26.40226         6.85327
   C      -11.61534        27.23372         7.86679
   C      -11.63669        26.79021         9.19886
   C      -11.17385        25.51146         9.52862
   C      -12.14313        27.60237        10.24519
   N      -12.56279        28.16024        11.15305
   C      -12.05294        28.63977         7.57668
   O      -11.93181        29.52334         8.37637
   O      -12.58115        28.86206         6.36677
   C      -10.19245        24.04147         6.33310
   C      -10.42364        23.95142         4.98009
   C      -10.16940        22.82661         4.16984
   N      -10.02109        21.94552         3.44809
   C      -11.08347        24.96141         4.25197
   N      -11.62437        25.76571         3.63535
   H        5.79471         2.64330        -2.00007
   H        4.10547        -1.67663        -0.17433
   H        6.14875        -2.76800        -0.85946
   H        8.37356        -2.68146        -1.91141
   H        9.23559        -0.56239        -2.82388
   H        7.87792         1.48921        -2.69201
   H        0.37641         2.05203         1.10367
   H        1.89271         5.13372        -0.78458
   H        2.34122         9.80082        -0.72945
   H        3.05017         7.54907        -5.47388
   H        4.13408         6.50844        -4.55310
   H        4.53929         8.21952        -4.79095
   H       -4.34362         7.97093         1.55288
   H       -5.78268         5.67462         5.63107
   H       -4.15883         5.25519         6.21123
   H       -5.00890         4.17073         5.11336
   H       -2.81772         9.61742         2.15523
   H       -0.80461        13.05707        -0.55791
   H       -3.31958        18.49444         0.94460
   H       -4.93304        19.69337         0.38270
   H       -6.54180        22.70222        -1.12900
   H       -5.96023        24.05520         0.49901
   H       -6.87511        22.88446         3.63710
   H       -7.38999        19.84906         6.47397
   H       -8.03786        22.49805         5.08951
   H       -8.68621        21.31165         7.84542
   H      -11.07271        26.76741         5.83960
   H      -11.17851        25.16863        10.55207
   H      -12.65280        28.07324         5.81096
*
