# ORCA input file
# SCF done       -185.200555799347          0.000449882775
! CAM-B3LYP def2-SVP def2/J RIJCOSX Grid4 TightSCF
%maxcore 5000
%tddft
    Mode sTDDFT
    Ethresh 5.0
    maxcore 5000
end

%pal
  nprocs 6
  end
* xyz 0 1
   C        6.05781        -1.19306         1.90347
   N        5.80411        -2.44407         1.67124
   C        5.38139        -2.49357         0.36649
   C        5.38591        -1.15998        -0.22672
   C        4.93236        -1.20756        -1.62041
   O        4.81211        -0.29934        -2.41363
   C        4.65638        -2.65173        -1.81519
   C        4.94793        -3.39519        -0.56950
   N        4.69587        -4.72073        -0.73454
   C        4.27841        -4.83796        -1.96787
   C        4.22862        -3.58355        -2.70076
   C        5.82189        -0.30012         0.76010
   C        5.99397         1.10195         0.69190
   C        6.42238         1.88607         1.71658
   C        6.57822         3.28907         1.64276
   N        7.01026         4.01672         2.73603
   C        7.05681         5.32983         2.39397
   C        7.34606         6.60392         2.86330
   C        7.10475         7.47689         1.79066
   N        6.68271         6.74814         0.69675
   C        6.64238         5.43443         1.03706
   C        6.34489         4.16343         0.56847
   C        7.21554         8.88518         1.71136
   C        7.61023         9.70262         2.72252
   C        7.68204        11.11316         2.62445
   C        7.37838        11.93320         1.54748
   C        7.55005        13.28144         1.84325
   C        7.99352        13.50953         3.15948
   S        8.19761        12.04910         4.02530
   C        8.11690        14.90521         3.35390
   C        7.74975        15.56220         2.16587
   C        7.38519        14.56351         1.17651
   C        6.96920        14.78015        -0.10518
   C        6.64332        13.71771        -0.97282
   N        6.37824        12.84946        -1.67387
   C        6.83479        16.07748        -0.64114
   N        6.71870        17.13179        -1.07735
   C        7.82532        16.95085         2.25871
   C        8.24833        17.36937         3.50709
   S        8.56078        16.00786         4.58369
   C        8.42096        18.70718         3.94437
   N        8.88395        19.02811         5.20136
   C        8.92974        20.38466         5.30850
   C        9.25997        21.43578         6.14875
   C        8.98534        22.61219         5.42628
   N        8.48816        22.27765         4.18231
   C        8.47027        20.92838         4.07684
   C        8.15499        19.87713         3.22306
   C        9.18500        23.93996         5.84721
   C        8.70426        25.05309         5.21478
   C        8.93074        26.37897         5.62632
   C        9.93914        26.90391         6.39528
   C        9.72039        28.21640         7.05032
   O        8.80030        28.98113         6.85894
   C       10.83104        28.36651         8.01448
   C       11.03897        29.34570         8.94108
   C       12.17120        29.26450         9.78343
   C       13.06307        28.16173         9.64939
   C       14.18633        28.08247        10.49640
   C       14.41520        29.05381        11.43016
   C       13.53347        30.14440        11.56080
   C       12.43434        30.24910        10.75514
   F       13.78142        31.08242        12.48681
   F       15.48535        28.97615        12.23430
   C       12.82369        27.16555         8.67420
   C       11.72669        27.27091         7.86279
   C       11.24773        26.42837         6.76551
   C       12.03244        25.53070         6.07984
   C       11.65058        24.90357         4.88030
   N       11.40207        24.38738         3.88446
   C       13.34448        25.18535         6.45560
   N       14.40876        24.84876         6.72686
   H        6.41058        -0.89047         2.87449
   H        4.00640        -5.80226        -2.36116
   H        3.91458        -3.47059        -3.71975
   H        5.75314         1.55082        -0.26125
   H        6.66337         1.43052         2.66868
   H        7.24311         3.61840         3.62944
   H        7.68259         6.88796         3.83932
   H        6.44560         7.14582        -0.19599
   H        6.00420         3.88055        -0.40617
   H        6.94974         9.32199         0.75811
   H        7.88336         9.27471         3.67610
   H        7.04508        11.55963         0.59758
   H        7.58821        17.63211         1.46364
   H        9.14919        18.35613         5.90107
   H        9.63944        21.39859         7.15015
   H        8.33710        22.93696         3.43882
   H        7.78446        19.92541         2.22022
   H        9.72666        24.05916         6.77608
   H        8.01887        24.92818         4.38713
   H        8.17079        27.10414         5.34931
   H       10.35038        30.17199         9.03105
   H       14.87390        27.25601        10.40643
   H       11.76875        31.09058        10.86756
   H       13.51276        26.33951         8.60000
*
