# ORCA input file
# SCF done       -198.761144903496          0.000896624403
! CAM-B3LYP def2-SVP def2/J RIJCOSX Grid4 TightSCF
%maxcore 5000
%tddft
    Mode sTDDFT
    Ethresh 5.0
    maxcore 5000
end

%pal
  nprocs 6
  end
* xyz 0 1
   C       -1.66303        -0.56141         3.51528
   C       -1.75439        -0.27571         2.15746
   C       -1.42602         1.02955         1.67045
   N       -1.52057         1.29478         0.34751
   C       -1.90990         0.33929        -0.44569
   C       -2.23124        -0.95179         0.03888
   N       -2.15702        -1.24996         1.30114
   C       -0.99813         2.06123         2.54767
   C       -0.91771         1.74899         3.92815
   C       -1.25230         0.43345         4.39716
   N       -1.17368         0.13090         5.71821
   C       -0.79098         1.06522         6.53550
   C       -0.46653         2.36355         6.07929
   N       -0.52935         2.68814         4.81977
   C       -0.68804         3.32738         1.96021
   C       -0.23369         4.43538         2.59487
   C        0.04627         5.66206         1.94032
   C       -0.08141         6.00554         0.60260
   C        0.29146         7.32474         0.35926
   C        0.71230         8.00207         1.51993
   S        0.64447         7.00836         2.90400
   C        1.05985         9.32909         1.16645
   C        0.85568         9.49499        -0.21444
   C        0.37304         8.23998        -0.76852
   C        0.06904         7.97827        -2.07212
   C        0.19476         8.95630        -3.08110
   N        0.29736         9.75019        -3.90201
   C       -0.38708         6.71428        -2.50156
   N       -0.75647         5.68967        -2.85947
   C        1.16326        10.77997        -0.65935
   C        1.60493        11.59227         0.36897
   S        1.63896        10.75248         1.91436
   C        2.00176        12.95000         0.28379
   C        2.51351        13.75071         1.28843
   C        2.79668        15.03930         0.83507
   C        2.49021        15.22014        -0.52458
   S        1.86290        13.80596        -1.24718
   C        2.81129        16.55069        -0.88851
   C        3.32862        17.21269         0.23814
   C        3.33415        16.28507         1.35937
   C        3.75566        16.53109         2.63305
   C        4.26390        17.78690         3.02630
   N        4.67822        18.80617         3.34944
   C        3.71187        15.54496         3.64085
   N        3.67601        14.74505         4.46145
   C        3.68215        18.53602        -0.02441
   C        3.43154        18.88711        -1.33904
   S        2.74983        17.55691        -2.26689
   C        3.66372        20.13439        -1.96855
   C        3.34459        20.48822        -3.26803
   C        3.72493        21.79529        -3.56043
   C        4.34571        22.44502        -2.47718
   S        4.44867        21.44433        -1.09541
   C        4.70893        23.75590        -2.87108
   C        4.30826        23.93334        -4.21050
   C        3.67620        22.71596        -4.68595
   C        3.14680        22.48089        -5.92131
   C        3.15074        23.45212        -6.94447
   N        3.14455        24.22881        -7.78816
   C        2.55636        21.24484        -6.25740
   N        2.07482        20.24002        -6.52942
   C        4.62825        25.19035        -4.70653
   C        5.27257        25.98038        -3.76528
   S        5.48722        25.14242        -2.23168
   C        5.75115        27.31248        -3.92530
   C        6.43664        27.93861        -2.85812
   C        6.99111        29.25508        -2.95833
   N        7.61436        29.78431        -1.88252
   C        7.71359        29.07634        -0.79484
   C        7.18572        27.77223        -0.70316
   N        6.56222        27.24079        -1.71535
   C        6.87718        29.99145        -4.15748
   C        6.15226        29.38649        -5.21355
   C        5.59383        28.07197        -5.11248
   N        4.91161        27.55411        -6.15545
   C        4.78751        28.25866        -7.24306
   C        5.34445        29.55091        -7.34683
   N        5.99754        30.09031        -6.36004
   C        7.43633        31.30384        -4.38717
   C        8.26797        31.97859        -3.59307
   H       -1.90690        -1.54409         3.88360
   H       -1.97791         0.57949        -1.49821
   H       -2.55299        -1.73766        -0.63147
   H       -0.73360         0.80677         7.58449
   H       -0.15407         3.14038         6.76481
   H       -0.84474         3.35070         0.89056
   H       -0.07057         4.40512         3.66181
   H       -0.43191         5.32110        -0.14733
   H        1.07832        11.12217        -1.67520
   H        2.66914        13.39689         2.29188
   H        4.09832        19.22248         0.69096
   H        2.85867        19.81487        -3.95140
   H        4.41855        25.54760        -5.69721
   H        8.21505        29.54098         0.04345
   H        7.26448        27.17712         0.19549
   H        4.23018        27.80576        -8.05148
   H        5.23989        30.14455        -8.24502
   H        7.13187        31.73108        -5.33345
   H        8.61322        31.58148        -2.65606
   H        8.61969        32.95636        -3.87707
*
