# ORCA input file
# SCF done       -135.449527806255          0.000646895981
! CAM-B3LYP def2-SVP def2/J RIJCOSX Grid4 TightSCF
%maxcore 5000
%tddft
    Mode sTDDFT
    Ethresh 5.0
    maxcore 5000
end

%pal
  nprocs 6
  end
* xyz 0 1
   C        1.29167        -0.80630         3.63138
   C        2.03785         0.28163         4.03485
   C        2.01612         1.53986         3.30108
   N        2.79835         2.45828         3.89295
   S        3.47476         1.81164         5.19001
   N        2.84271         0.34881         5.11194
   C        1.21765         1.72661         2.16638
   C        0.49056         0.58968         1.72621
   C       -0.27173         0.46134         0.58151
   S       -0.95052        -1.08789         0.41988
   C       -0.23327        -1.64256         1.85483
   C        0.53065        -0.66223         2.46512
   C        1.15152         3.02707         1.53106
   C        2.25324         3.86363         1.45131
   C        2.22104         5.14917         0.90656
   C        1.06933         5.73684         0.40425
   C       -0.09194         4.91862         0.47657
   C       -0.05388         3.58049         1.02308
   N       -1.28718         3.11377         0.98085
   O       -2.04185         4.06999         0.44464
   N       -1.34005         5.16540         0.13126
   C        1.00806         7.05728        -0.13406
   N       -0.15659         7.55648        -0.67148
   C        0.07447         8.82301        -1.09808
   C       -0.50682         9.92803        -1.71238
   C        0.49536        10.90283        -1.78899
   N        1.65928        10.40536        -1.23256
   C        1.43129         9.13353        -0.81393
   C        2.01762         8.02558        -0.21401
   C        0.45618        12.21877        -2.31604
   C       -0.58898        12.75667        -2.98960
   C       -0.63659        14.07911        -3.52977
   C        0.27299        15.09962        -3.29628
   C        0.17658        16.36580        -3.88045
   C       -0.84293        16.75035        -4.73569
   C       -1.81090        15.74400        -5.00001
   C       -1.69915        14.43058        -4.40837
   N       -2.69833        13.70589        -4.86675
   O       -3.38656        14.49536        -5.69091
   N       -2.86924        15.72175        -5.78758
   C       -0.86167        18.05087        -5.37400
   C        0.33447        18.64378        -5.79604
   C        0.35843        19.89843        -6.53594
   N        1.61279        20.25261        -6.87278
   S        2.62196        19.13967        -6.33570
   N        1.57421        18.14758        -5.64557
   C       -0.79941        20.58619        -6.83555
   C       -2.00348        20.04319        -6.37182
   C       -3.26370        20.60108        -6.50545
   S       -4.45766        19.66210        -5.74788
   C       -3.33338        18.49732        -5.23286
   C       -2.04568        18.78706        -5.64010
   H        1.30294        -1.72886         4.18705
   H       -0.46877         1.19381        -0.17149
   H       -0.37993        -2.65112         2.18355
   H        3.19553         3.49794         1.82634
   H        3.14190         5.70970         0.87957
   H       -1.01834         7.03143        -0.69322
   H       -1.51466        10.03791        -2.05615
   H        2.52850        10.90829        -1.18448
   H        3.02635         7.91808         0.12917
   H        1.35502        12.80489        -2.17075
   H       -1.46404        12.15399        -3.18270
   H        1.09888        14.92409        -2.62418
   H        0.93937        17.09039        -3.64358
   H       -0.77402        21.50601        -7.39533
   H       -3.52018        21.51743        -6.99668
   H       -3.67753        17.66170        -4.66228
*
