# ORCA input file
# SCF done       -233.416213090577          0.000552483101
! CAM-B3LYP def2-SVP def2/J RIJCOSX Grid4 TightSCF
%maxcore 5000
%tddft
    Mode sTDDFT
    Ethresh 5.0
    maxcore 5000
end

%pal
  nprocs 6
  end
* xyz 0 1
   C        0.12617         1.87686        -0.58753
   C        0.74064         0.65374        -0.58960
   C        0.28661        -0.46096        -1.32631
   N       -0.02805        -1.39843        -1.90771
   C        1.86710         0.35842         0.20198
   N        2.78520         0.10834         0.84388
   C       -1.17301         2.16472        -1.19762
   C       -1.70565         3.32780        -0.61093
   C       -2.94603         3.81963        -0.96739
   C       -3.66174         3.14607        -1.95051
   C       -3.12766         2.00313        -2.55449
   C       -1.88356         1.49754        -2.17877
   C       -3.91967         1.36421        -3.64286
   O       -4.83237         1.91317        -4.21001
   O       -3.49971         0.13361        -3.92199
   C       -4.20422        -0.55171        -4.94880
   C       -5.04546         3.60645        -2.32410
   O       -6.04587         3.13926        -1.85186
   O       -4.99381         4.63752        -3.16037
   C       -6.24783         5.11666        -3.63216
   C       -0.73434         3.87626         0.36019
   O       -0.86412         4.82890         1.08998
   C        0.48543         3.02747         0.21163
   C        1.65099         3.49014         0.74194
   C        2.99297         3.13409         0.47879
   C        3.56152         2.49523        -0.61548
   F        2.85190         2.11267        -1.68100
   C        4.94840         2.37329        -0.53939
   C        5.46688         2.93257         0.63679
   S        4.23544         3.62124         1.61922
   C        6.85665         2.80059         0.70656
   C        7.37666         2.13755        -0.41227
   S        6.16329         1.66998        -1.56676
   C        8.77020         2.02017        -0.35775
   F        9.51018         1.43562        -1.30500
   C        9.32209         2.58856         0.77541
   S        8.08924         3.27628         1.81728
   C       10.66448         2.67758         1.09589
   C       11.84911         2.77289         1.34735
   C       13.19489         2.93470         1.62111
   S       13.72163         4.07091         2.83289
   C       15.38884         3.70184         2.47927
   C       15.49658         2.74290         1.49018
   C       14.26396         2.31282         1.00628
   C       16.41483         4.36962         3.12378
   C       17.29238         5.00472         3.67498
   C       18.30358         5.75435         4.25878
   C       19.60974         5.57513         3.94867
   C       20.69073         6.35045         4.45252
   C       20.69501         7.43586         5.31280
   F       19.58577         7.93804         5.87103
   C       21.96707         7.97351         5.53564
   C       22.96616         7.28473         4.83672
   S       22.31764         5.97913         3.91678
   C       24.23022         7.84197         5.04406
   C       24.17634         8.95193         5.89923
   S       22.57100         9.31606         6.46185
   C       25.43349         9.51444         6.11417
   F       25.62381        10.62768         6.82799
   C       26.46190         8.86533         5.44275
   S       25.82997         7.52733         4.49832
   C       27.83871         9.17029         5.35546
   C       28.63398         9.93864         6.15017
   C       28.49451        10.50076         7.47506
   C       27.75858         9.98762         8.50935
   C       27.72775        10.53135         9.81107
   N       27.65166        10.93166        10.88329
   C       26.99294         8.81129         8.39638
   N       26.36639         7.85288         8.31574
   C       29.48582        11.57048         7.59695
   C       30.35467        11.51529         6.49072
   C       29.92000        10.43735         5.57762
   O       30.45033        10.05899         4.56115
   C       31.40577        12.39738         6.34992
   C       31.58651        13.36562         7.33527
   C       30.72450        13.42684         8.43536
   C       29.67096        12.53081         8.57815
   C       30.99500        14.43345         9.52131
   O       31.87013        14.30569        10.33374
   O       30.10382        15.41670         9.49360
   C       30.29518        16.45410        10.44885
   C       32.65029        14.40122         7.22636
   O       32.59117        15.47504         7.77208
   O       33.65894        14.01062         6.44905
   C       34.72502        14.93857         6.29569
   H       -3.34120         4.70379        -0.49163
   H       -1.49946         0.61836        -2.66971
   H       -4.08807        -0.02910        -5.90050
   H       -5.26691        -0.60707        -4.70514
   H       -3.76829        -1.54571        -5.00074
   H       -6.91789         5.31560        -2.79348
   H       -6.70137         4.36704        -4.28260
   H       -6.03680         6.02831        -4.18483
   H        1.52763         4.31639         1.43698
   H       16.44619         2.38286         1.13695
   H       14.13602         1.57823         0.23168
   H       17.98826         6.51027         4.96427
   H       19.88373         4.79849         3.24712
   H       28.33452         8.78384         4.46899
   H       32.06268        12.34505         5.49610
   H       29.01691        12.60415         9.43216
   H       31.22252        16.98589        10.22964
   H       30.35176        16.03610        11.45577
   H       29.43951        17.11698        10.35222
   H       35.05412        15.29937         7.27208
   H       34.39943        15.79112         5.69587
   H       35.52512        14.40168         5.79280
*
