# ORCA input file
# SCF done       -195.773078880045          0.000877043467
! CAM-B3LYP def2-SVP def2/J RIJCOSX Grid4 TightSCF
%maxcore 5000
%tddft
    Mode sTDDFT
    Ethresh 5.0
    maxcore 5000
end

%pal
  nprocs 6
  end
* xyz 0 1
   C       -3.33893        -0.01090         1.99292
   O       -3.14975        -0.91633         2.79407
   C       -3.18581         1.42402         2.30349
   C       -3.49580         2.18700         1.16600
   C       -3.40683         3.56693         1.22600
   C       -3.00978         4.15801         2.42147
   C       -2.70755         3.38975         3.54594
   C       -2.79571         2.00470         3.49140
  Br       -2.17079         4.21506         5.16085
  Br       -2.88664         6.04456         2.49543
   C       -3.86857         1.27454         0.08346
   C       -4.27201         1.67957        -1.16467
   C       -4.36490         3.03021        -1.56198
   N       -4.46325         4.10692        -1.94820
   C       -4.66379         0.84645        -2.23310
   N       -5.00051         0.25597        -3.15979
   C       -3.74434        -0.07875         0.58693
   C       -3.95228        -1.20625        -0.18772
   C       -3.85665        -2.56393         0.11587
   N       -3.54624        -3.11111         1.34270
   C       -3.52447        -4.45082         1.21707
   C       -3.29624        -5.63560         1.90830
   C       -3.46113        -6.66726         0.97505
   N       -3.79226        -6.13589        -0.25433
   C       -3.83753        -4.78071        -0.14172
   C       -4.05047        -3.60769        -0.82971
   C       -3.28997        -8.06517         1.13889
   C       -2.96947        -8.66621         2.31071
   C       -2.71215       -10.05005         2.45273
   S       -2.75632       -11.13355         1.08289
   C       -2.35641       -10.72693         3.61470
   C       -2.26137       -10.09134         4.94194
   O       -2.44969        -8.90326         5.15195
   C       -1.92378       -11.04207         5.99062
   C       -1.79828       -10.84512         7.34870
   N       -1.49241       -12.02911         7.93208
   C       -1.22925       -12.23117         9.33441
   C        0.26838       -12.16294         9.62650
   C       -1.40090       -12.99086         6.98396
   C       -1.66686       -12.42300         5.75738
   C       -1.71326       -13.04581         4.45025
   O       -1.46850       -14.23192         4.26774
   C       -2.09373       -12.10723         3.38756
   C       -2.25683       -12.48196         2.05932
   C       -2.03402       -13.77006         1.50602
   C       -2.44902       -14.15967         0.28256
   C       -2.23415       -15.44258        -0.30218
   C       -1.34477       -16.44663         0.00419
   C       -1.43682       -17.54966        -0.90546
   C       -0.70058       -18.73301        -0.89629
   C       -0.97341       -19.70040        -1.85142
   C       -1.98040       -19.50764        -2.81431
   C       -2.71536       -18.34511        -2.82936
   C       -2.44091       -17.37049        -1.87833
   S       -3.21723       -15.83787        -1.70359
   C       -0.23140       -20.90418        -1.85893
   N        0.37031       -21.87977        -1.86936
   C       -0.26644       -16.43439         0.98208
   C       -0.22379       -16.61425         2.31246
   C        1.11251       -16.46348         2.98091
   O        2.16964       -16.31236         2.41273
   C        0.84109       -16.51407         4.41850
   C       -0.52929       -16.73972         4.63502
   C       -1.00037       -16.80502         5.93699
   C       -0.12033       -16.64471         7.00200
   C        1.24796       -16.42168         6.77490
   C        1.72182       -16.35633         5.47086
   C        2.19367       -16.25967         7.92272
   C       -0.64296       -16.72542         8.40340
   C       -1.21731       -16.86026         3.35424
   C       -2.52845       -17.20085         3.18764
   C       -3.17139       -17.47832         1.96411
   N       -3.77433       -17.78363         1.03623
   C       -3.43635       -17.38185         4.25524
   N       -4.23005       -17.52959         5.07076
   H       -3.63067         4.19659         0.38068
   H       -2.56304         1.39761         4.35245
   H       -4.22005        -1.02764        -1.22008
   H       -3.35258        -2.52889         2.15923
   H       -3.03645        -5.75890         2.93920
   H       -3.96167        -6.67718        -1.08464
   H       -4.30341        -3.46287        -1.86089
   H       -3.40470        -8.67489         0.24946
   H       -2.87104        -8.08706         3.21723
   H       -1.91961        -9.94451         7.91711
   H       -1.62411       -13.20903         9.62454
   H       -1.75666       -11.46091         9.90178
   H        0.80234       -12.90853         9.04159
   H        0.45131       -12.34594        10.68156
   H        0.66012       -11.18198         9.36933
   H       -1.16982       -14.01084         7.21827
   H       -1.51735       -14.45601         2.15725
   H       -3.03189       -13.47080        -0.31821
   H        0.06867       -18.89482        -0.15553
   H       -2.17018       -20.28500        -3.53868
   H       -3.49350       -18.18848        -3.55944
   H        0.71923       -16.30820         0.53016
   H       -2.04670       -16.96331         6.14095
   H        2.76838       -16.18346         5.26839
   H        1.92130       -15.39842         8.53288
   H        3.21006       -16.11976         7.56523
   H        2.16855       -17.13831         8.56625
   H       -1.72741       -16.79855         8.40744
   H       -0.34361       -15.85488         8.98660
   H       -0.23797       -17.60485         8.90421
*
