# ORCA input file
# SCF done       -186.321048278166          0.002089628651
! CAM-B3LYP def2-SVP def2/J RIJCOSX Grid4 TightSCF
%maxcore 5000
%tddft
    Mode sTDDFT
    Ethresh 5.0
    maxcore 5000
end

%pal
  nprocs 6
  end
* xyz 0 1
   C        0.14608        -3.03310         2.17428
   C       -1.15997        -3.26433         2.46655
   S       -1.99500        -1.78104         2.76492
   C       -0.56173        -0.81921         2.47900
   C       -0.57494         0.65822         2.57067
   C        0.48033        -1.64071         2.18703
   C        1.89666        -1.47682         1.83821
   O        2.48339        -0.43359         1.62955
   C        2.42201        -2.85714         1.70374
   C        1.31980        -3.78861         1.79175
   C        1.30595        -5.14134         1.53354
   C        0.16872        -5.92956         1.78571
   N       -0.73824        -6.60992         1.97482
   C        2.33398        -5.88578         0.94208
   N        3.10262        -6.57955         0.43735
   C        3.72476        -3.26147         1.50335
   C        4.95739        -2.60910         1.54445
   S        6.27461        -3.56446         0.86798
   C        7.47654        -2.32899         1.13096
   C        6.85445        -1.24497         1.76601
   C        5.47204        -1.38755         2.02997
   C        4.98596        -0.30359         2.79459
   C        5.95247         0.62729         3.04614
   C        5.84530         1.88105         3.79307
   O        6.74949         2.67030         3.92240
   O        4.62655         2.04346         4.32650
   C        4.43721         3.24003         5.06701
   S        7.51328         0.22304         2.38401
   C        8.81850        -2.44169         0.77903
   C        9.42346        -3.57830         0.27220
   C       10.77641        -3.74836        -0.09613
   C       11.09016        -5.01310        -0.51945
   C        9.99946        -5.89745        -0.49192
   S        8.55497        -5.07141         0.04759
   C        9.88846        -7.25412        -0.77918
   C       10.78829        -8.18455        -1.33014
   C       10.26088        -9.44087        -1.46842
   C        8.92678        -9.56876        -1.01726
   S        8.37007        -8.02186        -0.41246
   C        8.09838       -10.67064        -1.10417
   C        6.79026       -10.70799        -0.60121
   C        6.22042        -9.87228         0.36316
   C        4.86156       -10.06529         0.49495
   C        4.34952       -11.07821        -0.34738
   S        5.58815       -11.81946        -1.27116
   C        2.94754       -11.08898        -0.21641
   C        2.57081       -10.07686         0.70202
   C        3.76226        -9.44907         1.22248
   C        3.86194        -8.47376         2.17159
   C        5.08992        -7.86857         2.51251
   N        6.07236        -7.35043         2.79699
   C        2.76243        -7.99146         2.91051
   N        1.90605        -7.57903         3.55299
   C        1.19736        -9.86427         0.73704
   C        0.51313       -10.72709        -0.10248
   S        1.59416       -11.85055        -0.92161
   C       -0.88308       -10.77992        -0.34077
   C       -1.74083        -9.72437        -0.35213
   C       -3.20840        -9.96216        -0.18032
   O       -3.77187       -11.03321        -0.21551
   C       -3.76660        -8.63432         0.07791
   C       -4.98508        -8.12642         0.40762
   S       -4.86548        -6.38955         0.55649
   C       -3.18760        -6.38174         0.15453
   C       -2.73730        -7.64449        -0.06446
   C       -1.50047        -8.29483        -0.44202
   C       -0.42796        -7.64986        -1.00368
   C       -0.38204        -6.24593        -1.09650
   N       -0.30979        -5.10122        -1.16144
   C        0.67718        -8.27813        -1.60628
   N        1.56722        -8.73569        -2.16966
   C       -6.25916        -8.84758         0.62249
   H       -1.69407        -4.19032         2.53916
   H       -0.84197         0.97985         3.57723
   H       -1.30552         1.07990         1.88119
   H        0.41367         1.03730         2.32133
   H        3.83478        -4.31085         1.24811
   H        3.97801        -0.18794         3.13921
   H        4.52816         4.10934         4.41260
   H        5.18446         3.31815         5.85946
   H        3.43663         3.18112         5.48671
   H        9.43413        -1.56664         0.94034
   H       11.48142        -2.93843        -0.03279
   H       12.07334        -5.32335        -0.82562
   H       11.78389        -7.90969        -1.62983
   H       10.79586       -10.27747        -1.88260
   H        8.45419       -11.52604        -1.66207
   H        6.78605        -9.18456         0.96194
   H        0.70197        -9.12918         1.34802
   H       -1.32919       -11.75847        -0.48724
   H       -2.65603        -5.45213         0.12698
   H       -6.09363        -9.91352         0.48281
   H       -7.01712        -8.50681        -0.08229
   H       -6.63671        -8.67037         1.62911
*
