# ORCA input file
# SCF done       -207.899647574223          0.000399254188
! CAM-B3LYP def2-SVP def2/J RIJCOSX Grid4 TightSCF
%maxcore 5000
%tddft
    Mode sTDDFT
    Ethresh 5.0
    maxcore 5000
end

%pal
  nprocs 6
  end
* xyz 0 1
   C       -5.67821        -3.00870         1.71913
   O       -5.99730        -3.74562         0.81357
   C       -6.52782        -2.62473         2.86066
   C       -5.80064        -1.81231         3.74753
   C       -6.42401        -1.32350         4.88893
   C       -7.74724        -1.66175         5.12397
   C       -8.44245        -2.47801         4.23828
   C       -7.84388        -2.97271         3.08802
  Br      -10.24895        -2.92386         4.60844
   C       -4.44344        -1.65688         3.23607
   C       -3.40775        -1.07669         3.91350
   C       -3.53595        -0.49124         5.19376
   N       -3.57813         0.00160         6.22841
   C       -2.06376        -1.01491         3.47960
   N       -0.94926        -0.94735         3.21510
   C       -4.38647        -2.30539         1.92522
   C       -3.35167        -2.16499         1.05415
   C       -3.10877        -2.69085        -0.25697
   C       -1.98731        -2.25451        -0.91002
   C       -1.55720        -2.65254        -2.20546
   C       -0.39782        -2.09777        -2.74553
   C        0.08134        -2.46697        -4.01187
   N        0.47588        -2.77052        -5.04762
   C        0.35968        -1.12983        -2.06880
   N        0.97613        -0.33041        -1.51977
   C       -2.30319        -3.61408        -2.94615
   C       -3.44467        -4.20184        -2.51223
   S       -4.20432        -3.85669        -0.96454
   C       -4.18060        -5.15896        -3.28960
   C       -5.28183        -5.85822        -2.88548
   C       -5.80416        -6.71456        -3.88210
   C       -5.04417        -6.66268        -5.07946
   S       -3.71836        -5.53881        -4.93825
   C       -5.36625        -7.38254        -6.22097
   C       -4.59865        -7.25348        -7.46543
   C       -3.21436        -7.40102        -7.46412
   C       -2.49726        -7.28319        -8.63842
   C       -3.13553        -7.00864        -9.84216
   C       -4.51699        -6.85045        -9.83748
   C       -5.24179        -6.97227        -8.66876
   C       -2.35402        -6.86085       -11.10946
   C       -6.48437        -8.23059        -6.12862
   C       -7.21280        -8.30746        -4.91476
   C       -6.92541        -7.55404        -3.78962
   C       -7.79465        -7.61030        -2.60780
   C       -8.14973        -8.83546        -2.05096
   C       -9.03322        -8.89374        -0.99077
   C       -9.59183        -7.73746        -0.46264
   C       -9.22181        -6.51476        -1.01115
   C       -8.33511        -6.44672        -2.06601
   C      -10.59298        -7.80040         0.64859
   S       -8.55061        -9.40783        -5.04383
   C       -8.14087        -9.75012        -6.71443
   C       -7.03349        -9.07269        -7.13087
   C       -9.03663       -10.61356        -7.43048
   C       -9.23054       -10.60440        -8.76948
   C      -10.26012       -11.32626        -9.44835
   C      -10.28447       -11.36089       -10.83637
   C      -11.30207       -12.01035       -11.55404
   N      -12.13361       -12.54294       -12.14072
   C       -9.27046       -10.77041       -11.60873
   N       -8.43747       -10.28473       -12.23315
   C      -11.33069       -11.91497        -8.70304
   C      -11.36146       -12.02473        -7.35352
   S       -9.96135       -11.65284        -6.36277
   C      -12.50062       -12.50746        -6.61654
   C      -12.87132       -12.14379        -5.36815
   C      -13.81828       -13.01048        -4.59473
   O      -14.53521       -13.87021        -5.03779
   C      -13.61659       -12.61738        -3.18292
   C      -12.76233       -11.49998        -3.11954
   C      -12.42722       -11.08168        -4.47469
   C      -12.00635        -9.83176        -4.83242
   C      -11.70627        -8.81003        -3.90448
   N      -11.45568        -7.95051        -3.18767
   C      -11.90600        -9.39805        -6.17217
   N      -11.84281        -9.00723        -7.24912
   C      -12.39225       -10.97870        -1.88761
   C      -12.89367       -11.57185        -0.74036
   C      -13.75275       -12.66280        -0.82201
   C      -14.12616       -13.20774        -2.04387
  Br      -14.42169       -13.43030         0.77981
   H       -5.90872        -0.68728         5.58912
   H       -8.24539        -1.28863         6.00560
   H       -8.37514        -3.60355         2.39250
   H       -2.54739        -1.51725         1.38388
   H       -1.35760        -1.53479        -0.40036
   H       -1.92498        -3.89083        -3.92245
   H       -5.70723        -5.77676        -1.90070
   H       -2.70192        -7.63561        -6.54266
   H       -1.42457        -7.40894        -8.62051
   H       -5.03099        -6.62934       -10.76168
   H       -6.31190        -6.82189        -8.67928
   H       -1.43864        -7.44649       -11.07260
   H       -2.07910        -5.81551       -11.25404
   H       -2.94334        -7.17482       -11.96779
   H       -7.71511        -9.74644        -2.43700
   H       -9.29113        -9.85570        -0.56885
   H       -9.64680        -5.60455        -0.61433
   H       -8.08424        -5.48969        -2.49928
   H      -11.59778        -7.68038         0.24218
   H      -10.42801        -6.99969         1.36630
   H      -10.54296        -8.75435         1.16863
   H       -6.60386        -9.18142        -8.11015
   H       -8.60741        -9.95516        -9.36939
   H      -12.20920       -12.21582        -9.25967
   H      -13.09278       -13.28731        -7.08430
   H      -11.71744       -10.14108        -1.81079
   H      -12.61811       -11.18618         0.22921
   H      -14.78652       -14.05845        -2.10937
*
