# ORCA input file
# SCF done       -172.773269415792          0.000574129056
! CAM-B3LYP def2-SVP def2/J RIJCOSX Grid4 TightSCF
%maxcore 5000
%tddft
    Mode sTDDFT
    Ethresh 5.0
    maxcore 5000
end

%pal
  nprocs 6
  end
* xyz 0 1
   C       -1.15340        -1.09150         0.67500
   O       -0.93662        -2.23103         0.33130
   C       -0.19567         0.03538         0.61276
   C       -0.84226         1.23119         0.96966
   C       -0.12627         2.42109         0.96863
   C        1.21491         2.39485         0.61916
   C        1.83279         1.20031         0.27142
   C        1.13687        -0.00039         0.25669
  Br        3.67477         1.21294        -0.19439
   C       -2.23613         0.93834         1.29205
   C       -3.15996         1.85360         1.72028
   C       -2.89480         3.23042         1.88267
   N       -2.74373         4.35847         2.03204
   C       -4.49929         1.56847         2.06328
   N       -5.59860         1.42859         2.36364
   C       -2.43435        -0.49267         1.13127
   C       -3.60777        -1.16656         1.23932
   C       -3.78820        -2.59518         1.18557
   C       -2.92784        -3.48290         1.86374
   O       -2.05243        -2.88295         2.70205
   C       -0.86358        -3.51202         3.13621
   C       -3.11180        -4.87611         1.72963
   O       -2.25526        -5.66228         2.44261
   C       -2.10914        -7.03298         2.15697
   C       -4.16526        -5.34861         0.92818
   C       -5.04459        -4.44125         0.30896
   C       -4.87565        -3.09401         0.45603
   C       -4.46340        -6.70750         0.72984
   C       -4.88223        -7.81637         0.46932
   C       -5.25152        -9.13331         0.24135
   S       -4.14779       -10.44286         0.57898
   C       -5.34174       -11.60824         0.06596
   C       -6.50761       -10.99096        -0.33372
   C       -6.45536        -9.59995        -0.23958
   C       -5.06738       -12.96649         0.08557
   C       -4.80655       -14.15206         0.10250
   C       -4.55245       -15.52099         0.10821
   C       -3.31019       -16.03605         0.19026
   C       -3.00291       -17.44823         0.20290
   C       -1.73117       -17.87279        -0.21557
   O       -0.84299       -16.93342        -0.71376
   C       -1.13201       -16.53532        -2.04415
   C       -1.37444       -19.22589        -0.17101
   O       -0.15384       -19.72832        -0.45732
   C        0.98946       -18.90194        -0.56012
   C       -2.34201       -20.18438         0.23063
   C       -3.59537       -19.72985         0.66973
   C       -3.92334       -18.40223         0.65421
   C       -2.10273       -21.59249         0.27975
   C       -1.25358       -22.42985        -0.37666
   C       -1.07010       -23.79686         0.19022
   O       -1.72338       -24.31271         1.06664
   C        0.09773       -24.36291        -0.51919
   C        0.51892       -23.46133        -1.51277
   C       -0.38498       -22.31150        -1.52429
   C       -0.49089       -21.41320        -2.55346
   C        0.39489       -21.35004        -3.64839
   N        1.09876       -21.22098        -4.54633
   C       -1.52332       -20.46580        -2.67934
   N       -2.34306       -19.67916        -2.84696
   C        1.61972       -23.77264        -2.29751
   C        2.27423       -24.97630        -2.08317
   C        1.83265       -25.85733        -1.10478
   C        0.73712       -25.56602        -0.30308
  Br        2.75434       -27.50057        -0.85763
   H       -0.58582         3.36000         1.22968
   H        1.78565         3.31079         0.61565
   H        1.61044        -0.93049        -0.01720
   H       -4.52589        -0.59627         1.31377
   H       -0.26911        -2.71065         3.57697
   H       -0.31831        -3.94725         2.29769
   H       -1.06043        -4.27611         3.88982
   H       -1.20963        -7.33988         2.69141
   H       -1.97465        -7.21294         1.08796
   H       -2.95969        -7.61416         2.52135
   H       -5.85791        -4.83949        -0.27749
   H       -5.54607        -2.40008        -0.02706
   H       -7.36138       -11.54268        -0.68462
   H       -7.26507        -8.94400        -0.50523
   H       -5.41940       -16.16180         0.00769
   H       -2.46232       -15.36440         0.23285
   H       -2.09082       -16.01206        -2.10644
   H       -1.16178       -17.39928        -2.71608
   H       -0.32729       -15.86320        -2.33661
   H        1.83810       -19.58310        -0.48281
   H        1.02890       -18.16861         0.24592
   H        1.02928       -18.38610        -1.52180
   H       -4.31751       -20.46071         1.00114
   H       -4.88982       -18.08164         1.00951
   H       -2.70291       -22.11167         1.02469
   H        1.98046       -23.10144        -3.05975
   H        3.13375       -25.23363        -2.68300
   H        0.39131       -26.24688         0.45917
*
