# ORCA input file
# SCF done       -193.235708768397          0.000660948106
! CAM-B3LYP def2-SVP def2/J RIJCOSX Grid4 TightSCF
%maxcore 5000
%tddft
    Mode sTDDFT
    Ethresh 5.0
    maxcore 5000
end

%pal
  nprocs 6
  end
* xyz 0 1
   C       -2.76362        -1.80433         1.40060
   O       -2.60109        -2.75733         2.14624
   C       -2.03461        -0.52361         1.52534
   C       -2.57561         0.41383         0.63303
   C       -2.04239         1.69204         0.57985
   C       -0.96470         2.00169         1.39746
   C       -0.43178         1.04824         2.25091
   C       -0.96331        -0.23028         2.34148
  Br        1.08178         1.49485         3.30851
   C       -3.64531        -0.23656        -0.12153
   C       -4.45833         0.41339        -1.01921
   C       -4.36769         1.79206        -1.30366
   N       -4.33945         2.90617        -1.57946
   C       -5.52099        -0.15591        -1.74444
   N       -6.42365        -0.53505        -2.34843
   C       -3.68250        -1.63464         0.26901
   C       -4.41276        -2.57325        -0.43780
   C       -4.58403        -3.96368        -0.33295
   C       -4.11236        -4.80107         0.66966
   C       -4.33960        -6.16047         0.75253
   C       -5.11654        -6.85698        -0.28380
   C       -5.65094        -6.26281        -1.37517
   S       -5.52637        -4.58874        -1.69969
   C       -5.14905        -8.22223         0.10338
   C       -4.42735        -8.38969         1.28793
   C       -4.42812        -9.73515         1.72117
   C       -5.13314       -10.52935         0.87450
   S       -5.82298        -9.68901        -0.47569
   C       -3.91051        -7.12125         1.72014
   C       -3.11623        -7.00379         2.87537
   C       -2.67468        -5.85394         3.46503
   C       -1.82717        -5.75579         4.58834
   C       -1.48013        -4.50161         5.06851
   C       -0.65658        -4.25291         6.14975
   C       -0.02870        -5.33751         6.90162
   C       -0.21742        -6.64666         6.61824
   S       -1.21354        -7.22058         5.34205
   C        0.74447        -4.69322         7.90931
   C        0.60583        -3.30485         7.81441
   C        1.35898        -2.63226         8.80196
   C        2.03174        -3.50292         9.59896
   S        1.78227        -5.16669         9.19291
   C       -0.27782        -3.00346         6.72112
   C       -0.78438        -1.79144         6.24429
   C       -0.57258        -0.50398         6.66366
   C       -1.23782         0.58657         6.05573
   C       -2.33171         0.42610         5.21382
   C       -2.90840         1.41419         4.45057
   C       -2.42092         2.78783         4.46013
   C       -1.45553         3.21678         5.30776
   S       -0.61643         2.19002         6.40134
   C       -3.18731         3.45783         3.46345
   C       -4.10844         2.58032         2.88038
   C       -4.88023         3.21153         1.88062
   C       -4.52276         4.51243         1.72149
   S       -3.25119         5.02982         2.77521
   C       -3.96241         1.28402         3.49338
   C       -4.61271         0.07928         3.25328
   C       -5.55362        -0.23236         2.29060
   C       -6.02178        -1.54082         2.22415
   C       -6.88176        -2.23423         1.39279
   C       -6.94605        -3.68808         1.65195
   O       -6.34914        -4.30548         2.51376
   C       -7.83607        -4.25118         0.62085
   C       -8.29021        -3.21025        -0.20388
   C       -7.78196        -1.92974         0.31117
   C       -8.22424        -0.71819        -0.16400
   C       -9.25874        -0.57287        -1.11435
   N      -10.12569        -0.36905        -1.83857
   C       -7.78884         0.55805         0.22546
   N       -7.47467         1.64037         0.45345
   C       -9.04838        -3.51609        -1.32359
   C       -9.35357        -4.84535        -1.58343
   C       -8.91591        -5.85098        -0.73450
   C       -8.14824        -5.57319         0.38699
  Br       -9.32903        -7.66435        -1.14147
   H       -2.43223         2.44508        -0.08392
   H       -0.53109         2.98938         1.36053
   H       -0.54731        -0.97108         3.00717
   H       -4.92861        -2.16657        -1.30046
   H       -3.53214        -4.30703         1.42973
   H       -6.19743        -6.81705        -2.12249
   H       -3.94087       -10.09977         2.60716
   H       -5.30246       -11.58535         0.95492
   H       -2.84188        -7.94602         3.33754
   H       -2.99103        -4.90169         3.07622
   H       -1.89883        -3.67161         4.51624
   H        0.24826        -7.43739         7.18481
   H        1.41045        -1.56629         8.92434
   H        2.67752        -3.27242        10.42360
   H       -1.44780        -1.92064         5.40146
   H        0.14934        -0.28403         7.43448
   H       -2.75032        -0.56534         5.14111
   H       -1.13047         4.24374         5.35155
   H       -5.66847         2.75551         1.31057
   H       -4.93436         5.22107         1.03061
   H       -4.32077        -0.74317         3.89664
   H       -5.90139         0.52980         1.61907
   H       -5.58109        -2.21292         2.96005
   H       -9.38646        -2.75541        -2.00666
   H       -9.93378        -5.09901        -2.45732
   H       -7.79108        -6.35043         1.04498
*
