# ORCA input file
# SCF done       -294.548275114307          0.000611359310
! CAM-B3LYP def2-SVP def2/J RIJCOSX Grid4 TightSCF
%maxcore 5000
%tddft
    Mode sTDDFT
    Ethresh 5.0
    maxcore 5000
end

%pal
  nprocs 6
  end
* xyz 0 1
   C       17.25127         2.76144        -3.98138
   C       18.49316         3.29913        -4.11776
   S       19.12016         3.02959        -5.70380
   C       17.67856         2.17181        -6.19750
  Cl       17.51784         1.53754        -7.75989
   C       16.78431         2.11614        -5.17154
   C       15.44541         1.56604        -4.94143
   O       14.75653         0.95388        -5.73079
   C       15.11941         1.91489        -3.53921
   C       16.23321         2.64631        -2.95453
   C       16.35601         3.15404        -1.68719
   C       17.51961         3.84485        -1.28789
   N       18.45699         4.41261        -0.94797
   C       15.40238         3.06697        -0.65447
   N       14.67603         3.03588         0.23508
   C       13.96214         1.60376        -2.88155
   C       12.80995         0.91761        -3.31689
   C       11.73902         0.69529        -2.46976
   C       10.67212         0.00212        -3.05931
   C        9.42350        -0.33644        -2.48160
   C        9.12413        -0.10828        -1.08563
   C        7.92804         0.24020        -0.52255
   C        7.98305         0.29858         0.88576
   C        9.20082        -0.01458         1.41893
   S       10.32212        -0.37980         0.15449
   C        9.61075        -0.06408         2.84422
  Cl        6.61578         0.72643         1.83984
   C        8.50212        -0.93783        -3.32839
   C        8.77482        -1.25478        -4.68625
   C       10.01709        -0.91715        -5.25899
   C       10.94246        -0.29587        -4.42216
   S       12.51736         0.25687        -4.91030
   C       10.32767        -1.15622        -6.65356
   C       11.53085        -1.49720        -7.20315
   C       11.49043        -1.56434        -8.61234
   C       10.27630        -1.26807        -9.16005
   S        9.13863        -0.90627        -7.90739
   C        9.88465        -1.22262       -10.59133
  Cl       12.87023        -1.98492        -9.55031
   C        7.70020        -1.95179        -5.28660
   C        6.63290        -2.13873        -4.45595
   S        6.90549        -1.46408        -2.86824
   C        5.40185        -2.79264        -4.76662
   C        5.15293        -3.62938        -5.81558
   C        3.82505        -4.11883        -5.84870
   C        3.25959        -5.03716        -6.75653
   C        4.02883        -5.68069        -7.80209
   C        3.62137        -5.99664        -9.06684
   C        4.61009        -6.68054        -9.80647
   C        5.77131        -6.90605        -9.12682
   S        5.65483        -6.25093        -7.52874
   C        7.00392        -7.59325        -9.58747
  Cl        4.35305        -7.18353       -11.43337
   C        1.90909        -5.32404        -6.58360
   C        1.11246        -4.75205        -5.56017
   C        1.68817        -3.86796        -4.62622
   C        3.03706        -3.57407        -4.80417
   S        3.98746        -2.54438        -3.77092
   C        0.94461        -3.30877        -3.51621
   C        1.05462        -2.05716        -2.98007
   C        0.21943        -1.86671        -1.85850
   C       -0.52371        -2.95826        -1.51433
   S       -0.20041        -4.26039        -2.60709
   C       -1.49420        -3.11290        -0.40196
  Cl        0.15874        -0.37328        -1.00430
   C       -0.23195        -5.19096        -5.63417
   C       -0.45723        -6.10213        -6.62271
   S        0.98891        -6.44885        -7.54513
   C       -1.68546        -6.74563        -6.95077
   C       -1.86885        -7.80303        -7.79289
   C       -3.21549        -8.22442        -7.89476
   C       -3.73433        -9.28692        -8.66287
   C       -2.89659       -10.16126        -9.45858
   C       -3.17411       -10.70442       -10.68045
   C       -2.15898       -11.57340       -11.13593
   C       -1.11041       -11.71952       -10.27504
   S       -1.36591       -10.75048        -8.86444
   C        0.11314       -12.54631       -10.42536
  Cl       -2.25468       -12.37892       -12.65421
   C       -5.10978        -9.48344        -8.59299
   C       -5.96736        -8.69318        -7.78283
   C       -5.45946        -7.58430        -7.06549
   C       -4.08230        -7.40233        -7.12853
   S       -3.18899        -6.18372        -6.25831
   C       -6.31569        -6.62152        -6.40632
   C       -6.14334        -5.26381        -6.39210
   C       -7.19375        -4.57819        -5.74902
   C       -8.17630        -5.38359        -5.24919
   S       -7.79292        -7.03820        -5.57479
   C       -9.44536        -5.00946        -4.58276
  Cl       -7.22829        -2.86331        -5.62189
   C       -7.30096        -9.12838        -7.86031
   C       -7.50709       -10.18070        -8.71683
   S       -5.99886       -10.72122        -9.43092
   C       -8.71285       -10.85815        -9.00808
   C       -9.99697       -10.50524        -8.71314
   C      -11.03332       -11.58667        -8.73005
   O      -10.92153       -12.68246        -9.22339
   C      -12.15868       -11.02602        -7.97090
   C      -13.36970       -11.44920        -7.51340
   S      -14.17729       -10.16659        -6.64046
   C      -12.87057        -9.07154        -6.91520
   C      -11.87569        -9.66330        -7.62735
   C      -10.59816        -9.28730        -8.20558
   C      -10.19863        -7.98697        -8.38891
   C      -10.86071        -6.91440        -7.76358
   N      -11.34393        -6.03108        -7.21065
   C       -9.12655        -7.58798        -9.20981
   N       -8.28378        -7.21367        -9.89304
  Cl      -14.08911       -12.97038        -7.70712
   H       19.08699         3.83462        -3.40407
   H       13.89042         1.92618        -1.84927
   H       11.73959         1.05131        -1.45561
   H        7.04481         0.48715        -1.08136
   H        8.78601         0.25963         3.47400
   H       10.46888         0.58358         3.01922
   H        9.89395        -1.07793         3.12690
   H       12.41420        -1.72287        -6.63622
   H        9.72804        -0.19252       -10.91290
   H        8.95724        -1.76904       -10.75469
   H       10.67187        -1.66107       -11.19970
   H        7.71089        -2.30419        -6.30005
   H        5.90352        -3.89185        -6.53626
   H        2.66855        -5.72470        -9.48062
   H        6.90124        -7.86449       -10.63517
   H        7.18003        -8.49745        -9.00499
   H        7.87210        -6.94590        -9.47051
   H        1.67503        -1.27860        -3.38269
   H       -1.19294        -3.92343         0.26095
   H       -2.48615        -3.34665        -0.78765
   H       -1.54548        -2.18929         0.16900
   H       -1.01592        -4.84986        -4.98338
   H       -1.05126        -8.25960        -8.31941
   H       -4.04665       -10.47134       -11.26149
   H        0.20417       -13.25140        -9.59980
   H        1.00317       -11.91748       -10.42840
   H        0.06807       -13.09900       -11.36029
   H       -5.32671        -4.75500        -6.86863
   H       -9.64004        -5.65297        -3.72693
   H      -10.27623        -5.11859        -5.28435
   H       -9.39912        -3.97378        -4.25562
   H       -8.08505        -8.72574        -7.25063
   H       -8.60859       -11.83734        -9.46558
   H      -12.92805        -8.07546        -6.52360
*
