# ORCA input file
# SCF done       -236.342393331663          0.000943229958
! CAM-B3LYP def2-SVP def2/J RIJCOSX Grid4 TightSCF
%maxcore 5000
%tddft
    Mode sTDDFT
    Ethresh 5.0
    maxcore 5000
end

%pal
  nprocs 6
  end
* xyz 0 1
   C        1.48609        -0.50250         8.07730
   C        0.53921         0.22573         8.74192
   F        0.13417        -0.17153         9.96157
   C       -0.03473         1.38454         8.20093
   C        0.36528         1.80486         6.96320
   C        1.33991         1.09306         6.23391
   C        1.90968        -0.08454         6.80058
   C        2.88361        -0.81947         6.08574
   C        3.27709        -0.38581         4.84831
   C        2.71610         0.80122         4.29409
   C        1.76791         1.52437         4.95860
   C        3.33847         1.06985         2.98331
   O        3.07663         1.95432         2.20160
   C        4.42039         0.05249         2.84990
   C        4.22191        -0.94451         3.88559
   C        4.64191        -2.24728         3.85307
   C        5.33657        -2.82594         2.76980
   N        5.84814        -3.37283         1.90009
   C        4.37864        -3.18248         4.87414
   N        4.22602        -3.97000         5.69555
   C        5.40911         0.24410         1.94251
   C        6.70257        -0.37969         1.87652
   C        7.34856        -0.84927         3.03213
   C        8.57708        -1.44625         2.92178
   C        9.19504        -1.58508         1.66543
   C        8.57842        -1.09852         0.52014
   C        7.34715        -0.48907         0.63625
   C       10.47481        -2.22650         1.85687
   C       10.64271        -2.50007         3.22780
   C        9.41250        -2.09133         4.00510
   C        9.73991        -1.12494         5.15211
   C       10.43376         0.14158         4.66358
   C        8.61081        -3.31879         4.50435
   C        9.36407        -4.27431         5.41921
   C       11.82368        -3.03086         3.68365
   C       12.86118        -3.32278         2.77957
   C       12.65734        -3.08077         1.41182
   C       11.48051        -2.53355         0.94845
   C       14.09352        -3.84024         3.31214
   C       15.24684        -4.02047         2.62844
   C       16.46988        -4.48861         3.19138
   C       17.63614        -4.53383         2.38323
   C       18.91997        -4.91802         2.88225
   N       19.98428        -4.89549         2.05119
   C       19.83997        -4.54130         0.80466
   C       18.54993        -4.18395         0.30014
   N       17.50835        -4.18292         1.08335
   C       18.34650        -3.80627        -1.12761
   C       21.05268        -4.52825        -0.05927
   C       19.09970        -5.31107         4.23295
   C       17.93407        -5.31348         5.02488
   C       16.64277        -4.90586         4.52889
   N       15.71149        -4.98774         5.48443
   S       16.37901        -5.51705         6.84184
   N       17.88612        -5.67033         6.30977
   C       20.35115        -5.66929         4.80536
   C       21.59887        -5.67357         4.19454
   C       22.60739        -6.05171         5.06802
   C       22.13228        -6.34891         6.36303
   S       20.43679        -6.15340         6.49249
   C       23.23579        -6.70750         7.16797
   C       24.41223        -6.62883         6.38547
   C       24.04979        -6.22550         5.03989
   C       24.88671        -6.06442         3.97338
   C       24.41513        -5.67580         2.70337
   N       24.03541        -5.35184         1.67026
   C       26.27647        -6.27383         4.09121
   N       27.40627        -6.43586         4.20416
   C       25.55623        -6.97166         7.08746
   C       25.28328        -7.32273         8.40491
   S       23.55982        -7.18933         8.76617
   C       26.16755        -7.68124         9.43740
   C       27.48230        -8.04677         9.36647
   C       28.31546        -7.92146        10.59390
   O       27.91592        -7.74006        11.72226
   C       29.71163        -8.00548        10.12633
   C       30.86701        -7.81821        10.82812
   C       32.10485        -7.90293        10.15173
   C       32.11909        -8.17492         8.75258
   C       33.35595        -8.24387         8.08261
   C       34.51218        -8.05310         8.78674
   C       34.51945        -7.78759        10.16275
   C       33.32739        -7.71549        10.82843
   F       35.69543        -8.11896         8.14868
   C       30.90566        -8.37489         8.05282
   C       29.72100        -8.29968         8.73265
   C       28.33987        -8.47914         8.28764
   C       27.96773        -9.17381         7.16419
   C       26.64009        -9.54135         6.87603
   N       25.57266        -9.87866         6.61926
   C       28.88149        -9.68939         6.22207
   N       29.58217       -10.13617         5.43037
   H        1.90331        -1.39203         8.52288
   H       -0.77760         1.91820         8.77221
   H       -0.06196         2.69458         6.52573
   H        3.30333        -1.70301         6.54049
   H        1.34940         2.41621         4.51678
   H        5.20784         1.01344         1.20292
   H        6.88945        -0.70385         3.99939
   H        9.05287        -1.19445        -0.44448
   H        6.84483        -0.11591        -0.24399
   H       10.38518        -1.63002         5.87171
   H        8.81286        -0.85821         5.66448
   H       11.37207        -0.10192         4.17005
   H       10.64675         0.80028         5.50238
   H        9.80462         0.67775         3.95617
   H        8.26180        -3.87168         3.62835
   H        7.72676        -2.94748         5.02903
   H       10.19320        -4.74104         4.89472
   H        8.68643        -5.05897         5.74792
   H        9.74256        -3.76516         6.30190
   H       11.98739        -3.20647         4.73642
   H       13.43917        -3.32279         0.70936
   H       11.34524        -2.33732        -0.10460
   H       14.08711        -4.07460         4.36801
   H       15.31907        -3.77665         1.57867
   H       18.65568        -4.62059        -1.78109
   H       18.94513        -2.93137        -1.37664
   H       17.29700        -3.58531        -1.29904
   H       21.92705        -4.81697         0.51769
   H       21.20851        -3.53309        -0.47335
   H       20.92920        -5.21947        -0.89177
   H       21.71661        -5.40222         3.16242
   H       26.55314        -6.92281         6.68911
   H       25.78411        -7.58075        10.44864
   H       30.83817        -7.60435        11.88607
   H       33.38819        -8.44964         7.02412
   H       35.46305        -7.64570        10.66536
   H       33.30707        -7.51151        11.88850
   H       30.94374        -8.56858         6.99253
*
