# ORCA input file
# SCF done       -294.897698377744          0.000586333990
! CAM-B3LYP def2-SVP def2/J RIJCOSX Grid4 TightSCF
%maxcore 5000
%tddft
    Mode sTDDFT
    Ethresh 5.0
    maxcore 5000
end

%pal
  nprocs 6
  end
* xyz 0 1
   C      -14.55023        -0.63474         7.50189
   C      -14.28190        -0.00229         8.70680
   C      -12.98127         0.13452         9.17115
   C      -11.90829        -0.35224         8.43975
   C      -12.16450        -0.98872         7.23724
   C      -13.48901        -1.13571         6.76448
   C      -13.46216        -1.85222         5.49538
   C      -14.52843        -2.06295         4.66361
   C      -15.83829        -1.60903         4.92625
   N      -16.92314        -1.26598         5.07754
   C      -14.46434        -2.71454         3.41393
   N      -14.48148        -3.22559         2.38567
   C      -12.08559        -2.29193         5.29608
   C      -11.26290        -1.55821         6.25034
   C       -9.94414        -1.23286         6.08060
   C       -9.22244        -1.52674         4.90311
   N       -8.62960        -1.68779         3.93337
   C       -9.18845        -0.49549         7.01324
   N       -8.52056         0.07903         7.74913
   C      -11.70110        -3.30525         4.46653
   C      -10.50149        -4.05806         4.50890
   C      -10.00608        -4.80409         3.46752
   C       -8.80064        -5.47154         3.76338
   C       -8.40206        -5.27315         5.11079
   S       -9.51941        -4.23961         5.95752
   C       -7.27943        -5.85510         5.67004
   C       -6.89176        -5.59667         7.06323
   C       -6.64033        -6.64447         7.94463
   C       -6.29049        -6.38582         9.25526
   C       -6.17994        -5.08108         9.72287
   C       -6.43120        -4.03816         8.83991
   C       -6.78368        -4.28895         7.52825
   C       -5.77638        -4.81063        11.13934
   C       -6.52435        -6.69061         4.82721
   C       -6.92493        -6.89768         3.48126
   C       -8.03217        -6.29076         2.91306
   C       -8.37635        -6.45143         1.49687
   C       -8.45300        -7.71296         0.91489
   C       -8.77315        -7.84830        -0.42257
   C       -9.01629        -6.73456        -1.21561
   C       -8.92776        -5.47431        -0.63246
   C       -8.61497        -5.32985         0.70349
   C       -9.37803        -6.87342        -2.66164
   S       -5.80081        -7.93519         2.64036
   C       -4.80374        -8.06406         4.07424
   C       -5.31348        -7.35802         5.12598
   C       -3.61451        -8.84812         4.04754
   C       -3.09920        -9.54144         2.99183
   C       -1.89704       -10.22679         3.29485
   C       -1.49462       -10.01746         4.63810
   S       -2.63254        -9.00609         5.49190
   C       -0.31565       -10.51784         5.16599
   C        0.08576       -10.25749         6.55456
   C       -0.78956       -10.51377         7.60497
   C       -0.41107       -10.26324         8.91020
   C        0.84366        -9.74603         9.20323
   C        1.71390        -9.48475         8.15010
   C        1.34477        -9.73662         6.84426
   C        1.26554        -9.48379        10.61610
   C        0.48506       -11.27935         4.29815
   C        0.07532       -11.50140         2.95897
   C       -1.10283       -10.99919         2.43035
   C       -1.50868       -11.26209         1.04363
   C       -2.77569       -11.76474         0.75851
   C       -3.14993       -12.02213        -0.54549
   C       -2.27678       -11.78406        -1.60060
   C       -1.01371       -11.28256        -1.31218
   C       -0.63053       -11.02685        -0.01005
   C       -2.69725       -12.04180        -3.01470
   S        1.21481       -12.51253         2.10664
   C        2.22341       -12.62625         3.53654
   C        1.70662       -11.93372         4.59178
   C        3.44345       -13.36123         3.49360
   C        3.89250       -14.17226         2.49138
   C        5.16369       -14.74012         2.74470
   C        5.67742       -14.33114         4.00601
   S        4.57400       -13.25890         4.82904
   C        6.90922       -14.72864         4.48333
   C        7.43486       -14.37860         5.80908
   C        6.70888       -14.70343         6.95102
   C        7.25931       -14.51794         8.20361
   C        8.53956       -13.99820         8.35443
   C        9.24099       -13.62882         7.21274
   C        8.70068       -13.81760         5.95574
   C        9.16360       -13.88533         9.70845
   C        7.64071       -15.60993         3.66172
   C        7.10177       -16.07635         2.43391
   C        5.88265       -15.64127         1.93952
   C        5.36392       -16.10206         0.64418
   C        5.27852       -17.46284         0.36307
   C        4.79495       -17.89577        -0.85540
   C        4.39025       -16.98866        -1.82795
   C        4.48349       -15.63149        -1.54591
   C        4.96129       -15.19012        -0.32702
   C        3.88929       -17.46875        -3.15488
   S        8.17521       -17.21842         1.67591
   C        9.30732       -17.10666         3.01852
   C        8.88317       -16.19371         3.95448
   C       10.49323       -17.87213         2.97161
   C       11.41447       -18.09700         3.95857
   C       12.77891       -18.54082         3.68527
   C       13.23358       -19.19579         2.57296
   C       12.43852       -19.61748         1.48541
   N       11.86130       -20.00420         0.57123
   C       14.57489       -19.59132         2.38308
   N       15.64632       -19.94113         2.16587
   C       13.58201       -18.16266         4.84083
   C       12.72439       -17.67250         5.85131
   C       13.23784       -17.22424         7.05711
   C       14.61049       -17.26683         7.24894
   C       15.45379       -17.75468         6.26085
   C       14.95128       -18.20782         5.05025
   C       11.35138       -17.78215         5.38171
   C       10.24417       -17.82503         6.18796
   C       10.24644       -17.48647         7.55538
   N       10.17842       -17.17585         8.65889
   C        8.97442       -18.26034         5.75257
   N        7.93873       -18.65813         5.46018
   H      -15.56701        -0.73419         7.15900
   H      -15.10123         0.38636         9.29207
   H      -12.80002         0.62543        10.11513
   H      -10.90114        -0.24716         8.80992
   H      -12.40643        -3.64253         3.71778
   H      -10.49140        -4.84750         2.50866
   H       -6.74403        -7.66471         7.60407
   H       -6.10303        -7.20991         9.92903
   H       -6.34963        -3.01609         9.18035
   H       -6.95323        -3.46365         6.85173
   H       -4.69046        -4.85464        11.23046
   H       -6.19845        -5.55456        11.81169
   H       -6.10211        -3.82237        11.45403
   H       -8.28500        -8.59225         1.51911
   H       -8.83681        -8.83626        -0.85557
   H       -9.10486        -4.59617        -1.23665
   H       -8.52481        -4.34357         1.13504
   H       -9.22188        -7.89192        -3.00781
   H       -8.78168        -6.19788        -3.27233
   H      -10.42686        -6.61630        -2.81047
   H       -4.82311        -7.30582         6.08173
   H       -3.55821        -9.54320         2.01903
   H       -1.76438       -10.93043         7.39841
   H       -1.10237       -10.47474         9.71342
   H        2.69242        -9.07600         8.35868
   H        2.02504        -9.50640         6.03701
   H        0.41639        -9.53524        11.29279
   H        1.72621        -8.50138        10.70279
   H        2.00092       -10.22460        10.93072
   H       -3.45906       -11.97727         1.56800
   H       -4.13483       -12.41801        -0.74889
   H       -0.32066       -11.08865        -2.11829
   H        0.35038       -10.62273         0.19208
   H       -3.38179       -12.88536        -3.06841
   H       -1.83510       -12.24445        -3.64558
   H       -3.21060       -11.16666        -3.41503
   H        2.17986       -11.90984         5.55731
   H        3.31679       -14.36820         1.60438
   H        5.72551       -15.13804         6.84998
   H        6.69420       -14.79949         9.07999
   H       10.22875       -13.20008         7.30924
   H        9.25630       -13.51941         5.07710
   H        8.41367       -13.68045        10.46866
   H        9.91809       -13.10243         9.72996
   H        9.64561       -14.83213         9.95556
   H        5.57065       -18.18297         1.11283
   H        4.72833       -18.95534        -1.05555
   H        4.17911       -14.90979        -2.29063
   H        5.04533       -14.13057        -0.13223
   H        3.29306       -18.37130        -3.03921
   H        4.73160       -17.70623        -3.80546
   H        3.28735       -16.70669        -3.64390
   H        9.45864       -15.91171         4.81655
   H       10.72277       -18.26772         1.99066
   H       12.59237       -16.83754         7.82906
   H       15.02629       -16.91416         8.18040
   H       16.51899       -17.78022         6.43253
   H       15.62184       -18.57877         4.29287
*
