# ORCA input file
# SCF done       -188.324161714797          0.000697176768
! CAM-B3LYP def2-SVP def2/J RIJCOSX Grid4 TightSCF
%maxcore 5000
%tddft
    Mode sTDDFT
    Ethresh 5.0
    maxcore 5000
end

%pal
  nprocs 6
  end
* xyz 0 1
   C        5.52169         5.48020         8.14650
   C        6.14577         6.09636         7.10609
   C        5.22258         6.51231         6.12651
   C        3.90212         6.18885         6.46632
   S        3.79854         5.38583         7.96962
   C        3.04275         6.64072         5.42834
   C        3.82343         7.24924         4.43694
   C        5.22373         7.18627         4.84464
   C        6.30059         7.66075         4.15221
   C        6.16647         8.29860         2.90198
   N        6.06256         8.81642         1.88365
   C        7.61848         7.54125         4.63916
   N        8.69272         7.44436         5.02911
   C        3.07064         7.72657         3.36479
   C        1.71840         7.48231         3.52675
   S        1.37878         6.65105         5.04265
   C        0.65656         7.81963         2.63860
   C       -0.64756         7.45630         2.87504
   C       -1.72583         7.74226         2.04043
   C       -1.50816         8.39957         0.74332
   C       -0.31330         8.86191         0.31673
   S        1.14138         8.73711         1.21719
   C       -2.77733         8.40567         0.10223
   C       -3.72172         7.79972         0.93000
   C       -5.00661         7.77597         0.34438
   C       -5.00247         8.34935        -0.88732
   S       -3.45260         8.94231        -1.38388
   C       -3.08859         7.40335         2.16197
   C       -3.79715         6.79790         3.22614
   C       -3.41032         6.72191         4.52869
   C       -4.14616         6.06684         5.54367
   C       -5.29792         5.29721         5.44350
   C       -5.70857         4.80045         6.67545
   C       -4.87134         5.19059         7.73869
   S       -3.57397         6.16879         7.20657
   C       -5.36962         4.62442         8.93273
   C       -6.51735         3.86709         8.63065
   C       -6.77291         3.96049         7.20507
   C       -7.79793         3.38939         6.50724
   C       -8.77875         2.59197         7.13187
   N       -9.57773         1.94196         7.63655
   C       -7.94614         3.56456         5.11631
   N       -8.06627         3.70865         3.98471
   C       -7.07501         3.25125         9.74956
   C       -6.37427         3.53307        10.90815
   S       -4.99217         4.58834        10.59905
   C       -6.65118         3.07472        12.22699
   C       -5.93802         3.49296        13.32523
   C       -6.15735         3.07151        14.63557
   C       -7.13648         2.01069        14.91811
   C       -7.96309         1.47257        13.99644
   S       -7.98405         1.92940        12.34333
   C       -7.00464         1.72981        16.30560
   C       -6.03381         2.56223        16.85962
   C       -5.86362         2.33417        18.24300
   C       -6.68979         1.35313        18.69134
   S       -7.70668         0.67306        17.46507
   C       -5.51306         3.43270        15.83577
   C       -4.57282         4.45161        16.11705
   C       -4.24710         5.52024        15.34396
   C       -3.31490         6.51820        15.71248
   C       -2.98113         7.64097        14.96896
   C       -2.04242         8.44238        15.61423
   C       -1.65099         7.93351        16.86012
   S       -2.43651         6.46203        17.23677
   C       -0.70579         8.82636        17.43337
   C       -0.50342         9.89557        16.54913
   C       -1.32870         9.69462        15.37785
   C       -1.42578        10.49623        14.27620
   C       -0.69121        11.69293        14.14966
   N       -0.09772        12.66851        14.03993
   C       -2.26220        10.17859        13.18723
   N       -2.93633         9.92192        12.29492
   C        0.42447        10.83382        17.04374
   C        0.89764        10.46851        18.26546
   S        0.23238         8.97547        18.85207
   H        5.96703         5.06438         9.02795
   H        7.20894         6.24207         7.04925
   H        3.47455         8.22431         2.50170
   H       -0.82454         6.87022         3.76584
   H       -0.18786         9.35385        -0.63489
   H       -5.88632         7.35922         0.80008
   H       -5.83012         8.46912        -1.55878
   H       -4.76633         6.39887         2.95693
   H       -2.50722         7.21593         4.85513
   H       -5.79821         5.10627         4.51249
   H       -7.95076         2.62768         9.73453
   H       -5.12850         4.18228        13.13081
   H       -8.68805         0.71233        14.24093
   H       -5.17084         2.85909        18.87552
   H       -6.77480         0.97100        19.68986
   H       -4.10426         4.38366        17.09272
   H       -4.73463         5.68873        14.39566
   H       -3.41368         7.84767        14.00683
   H        0.72609        11.72807        16.52949
   H        1.60855        10.98489        18.87859
*
