# ORCA input file
# SCF done       -277.350568294220          0.000714676527
! CAM-B3LYP def2-SVP def2/J RIJCOSX Grid4 TightSCF
%maxcore 5000
%tddft
    Mode sTDDFT
    Ethresh 5.0
    maxcore 5000
end

%pal
  nprocs 6
  end
* xyz 0 1
   C        1.66369         0.80905        -0.59049
   C        1.12557         0.48040         0.62285
   C        1.73670        -0.39005         1.55059
   N        2.17642        -1.07859         2.35614
   C       -0.12461         0.93899         1.08167
   N       -1.14470         1.26445         1.49745
   C        2.85186         0.21833        -1.18313
   C        2.83354         0.45793        -2.59011
   C        3.82019        -0.01329        -3.40886
   C        4.88812        -0.74830        -2.84729
   C        4.92200        -0.97047        -1.43887
   C        3.88615        -0.47670        -0.61499
   C        6.00110        -1.69422        -0.89117
   C        6.99611        -2.18183        -1.69381
   C        6.95936        -1.96712        -3.08008
   C        5.92862        -1.26543        -3.64430
   C        1.65519         1.26585        -2.93421
   O        1.26265         1.61419        -4.02070
   C        1.04969         1.64025        -1.61283
   C        0.22740         2.70778        -1.55274
   C       -0.23684         3.43977        -0.41436
   C        0.39032         3.79822         0.76755
   C        1.79751         3.53630         1.05595
   O        2.60106         3.08980         0.25914
   C        2.17434         3.84726         2.44933
   C        1.30815         4.52398         3.34596
   C        1.88173         4.68573         4.58490
   S        3.45939         4.01077         4.68371
   C        3.36919         3.51439         3.04240
   C        4.52175         2.78723         2.42419
   F        5.11122         3.48135         1.44673
   F        5.47575         2.53939         3.33760
   F        4.17193         1.59951         1.91710
   C        1.28946         5.34812         5.79081
   F        1.07281         6.65375         5.60847
   F        0.13705         4.79364         6.17356
   F        2.12467         5.24909         6.84118
   C       -0.04040         4.97919         2.95597
   O       -0.71450         5.67666         3.70179
   C       -0.46467         4.52327         1.65589
   C       -1.75197         4.71351         1.14164
   S       -1.86738         4.02412        -0.45672
   C       -2.91815         5.29594         1.68305
   C       -4.15257         5.26685         1.03035
   C       -5.15582         5.86522         1.76884
   C       -4.68398         6.37228         3.00058
   S       -3.02018         6.10575         3.24590
   C       -5.78726         6.94464         3.68334
   C       -6.94338         6.79641         2.89667
   C       -6.58357         6.12236         1.66079
   C       -7.40409         5.80483         0.61903
   C       -6.92293         5.15762        -0.53886
   N       -6.52822         4.63677        -1.48086
   C       -8.78172         6.11010         0.62602
   N       -9.90092         6.35838         0.62755
   C       -8.08543         7.31913         3.50362
   C       -7.80492         7.87007         4.73913
   S       -6.10536         7.73900         5.16118
   C       -8.72339         8.48006         5.63626
   C       -8.44834         9.12043         6.81180
   C       -9.59704         9.61241         7.47373
   C       -9.65968        10.29930         8.70184
   C       -8.46775        10.53016         9.49272
   C       -7.44790         9.65857         9.75137
   C       -6.44125        10.22611        10.56124
   C       -6.67196        11.52294        10.92041
   S       -8.17521        12.06646        10.25858
   C       -5.82996        12.42239        11.74870
  Cl       -5.04398         9.34089        11.04421
   C      -10.91691        10.72793         9.11805
   C      -12.10282        10.44926         8.38718
   C      -12.04915         9.72375         7.17179
   C      -10.78432         9.34830         6.74037
   S      -10.43796         8.46411         5.27742
   C      -13.23577         9.36601         6.42558
   C      -13.39414         9.30935         5.06886
   C      -14.67570         8.86104         4.68584
   C      -15.50346         8.55616         5.72855
   S      -14.69228         8.83844         7.22901
   C      -16.89996         8.05576         5.69475
  Cl      -15.14103         8.71472         3.03531
   C      -13.22675        10.99738         9.02253
   C      -12.94667        11.64669        10.21049
   S      -11.23815        11.60945        10.58309
   C      -13.97267        12.24678        10.97296
   C      -13.91918        12.93051        12.15283
   C      -15.05769        13.51409        12.84478
   C      -16.37797        13.43318        12.48492
   C      -17.43208        14.02914        13.20988
   N      -18.33760        14.48687        13.74693
   C      -16.89459        12.74951        11.36431
   N      -17.40434        12.21624        10.48322
   C      -14.54878        14.20326        14.02567
   C      -13.13657        14.02712        14.08294
   C      -12.69982        13.22541        12.93047
   O      -11.56090        12.88145        12.67895
   C      -12.38024        14.55779        15.08770
   C      -13.01386        15.30873        16.10264
   C      -14.42561        15.49444        16.05182
   C      -15.18221        14.92998        14.99926
   C      -15.04798        16.24802        17.06774
   C      -14.31312        16.79177        18.08602
   C      -12.92336        16.60714        18.13564
   C      -12.28750        15.88143        17.16499
   H        3.78811         0.17358        -4.47202
   H        3.94214        -0.63824         0.44957
   H        6.02255        -1.85769         0.17602
   H        7.81747        -2.73639        -1.26547
   H        7.75280        -2.35936        -3.69842
   H        5.89681        -1.09596        -4.71058
   H       -0.13377         3.06705        -2.51298
   H       -4.28677         4.80988         0.06568
   H       -9.07542         7.30890         3.08430
   H       -7.44642         9.25652         7.17652
   H       -7.43014         8.63545         9.42395
   H       -6.40785        12.82782        12.57786
   H       -5.46291        13.25940        11.15489
   H       -4.97948        11.87126        12.14217
   H      -12.64812         9.61294         4.35848
   H      -17.26198         8.05046         4.66976
   H      -17.54824         8.68768         6.30012
   H      -16.95441         7.04226         6.09240
   H      -14.22672        10.94149         8.63240
   H      -14.94897        12.12896        10.51824
   H      -11.31110        14.40675        15.10662
   H      -16.24837        15.09050        14.99162
   H      -16.11829        16.38702        17.02556
   H      -14.79913        17.36742        18.85938
   H      -12.35918        17.04279        18.94665
   H      -11.21763        15.73588        17.19771
*
