# ORCA input file
# SCF done       -232.181431668459          0.000319105832
! CAM-B3LYP def2-SVP def2/J RIJCOSX Grid4 TightSCF
%maxcore 5000
%tddft
    Mode sTDDFT
    Ethresh 5.0
    maxcore 5000
end

%pal
  nprocs 6
  end
* xyz 0 1
   C        5.63989         6.65757         5.31677
   C        5.48814         8.01882         5.30925
   C        5.76108         8.84274         6.41890
   N        5.94650         9.55140         7.30286
   C        5.13887         8.75233         4.15523
   N        4.92954         9.38707         3.22184
   C        6.32573         5.88641         6.34633
   C        6.74999         4.64975         5.77588
   C        7.48102         3.74531         6.49087
   C        7.81901         4.03697         7.83168
   C        7.38044         5.26195         8.41280
   C        6.62796         6.18252         7.64793
   C        7.72281         5.53886         9.75197
   C        8.46779         4.65336        10.48193
   C        8.90117         3.44865         9.90837
   C        8.58292         3.14683         8.61212
   C        6.27560         4.56413         4.38243
   O        6.48173         3.68874         3.57381
   C        5.42257         5.77213         4.18928
   C        4.55436         5.83399         3.14946
   C        3.42897         6.68883         2.98962
   C        2.86307         7.05657         1.79933
   C        1.76820         7.93879         1.93373
   C        1.02001         8.56401         0.91378
   C        1.32758         8.40824        -0.49247
   C        0.44778         8.31082        -1.53399
   C        1.09148         8.22801        -2.78645
   C        2.45475         8.27588        -2.72472
   S        2.96923         8.41320        -1.07885
   C        3.43800         8.22894        -3.83568
  Cl        0.21548         8.07940        -4.26058
   C       -0.02917         9.37739         1.32864
   C       -0.34756         9.61167         2.68965
   C        0.42256         9.01354         3.70839
   C        1.44910         8.17461         3.29519
   S        2.54732         7.34528         4.35734
   C        0.17911         9.30629         5.10622
   C       -0.10984        10.51361         5.67469
   C       -0.27467        10.43089         7.07434
   C       -0.11949         9.17684         7.58863
   S        0.25038         8.05778         6.32003
   C       -0.21346         8.73196         9.00181
  Cl       -0.64464        11.80960         8.03762
   C       -1.45119        10.48464         2.83120
   C       -1.93738        10.95131         1.64256
   S       -1.06997        10.29271         0.27157
   C       -2.99347        11.87999         1.43573
   C       -3.41692        12.41877         0.23878
   C       -4.44946        13.34236         0.41649
   C       -4.81599        13.49942         1.76196
   S       -3.89177        12.51716         2.80761
   C       -5.85317        14.46832         1.83849
   C       -6.13398        14.92435         0.54430
   C       -5.26494        14.23233        -0.39473
   C       -5.21526        14.39479        -1.74809
   C       -4.32148        13.66717        -2.56168
   N       -3.59718        13.07965        -3.22877
   C       -6.05205        15.30679        -2.42435
   N       -6.72938        16.04867        -2.97764
   C       -7.13728        15.89841         0.51615
   C       -7.62605        16.18557         1.77245
   S       -6.82927        15.22839         3.01362
   C       -8.64966        17.13317         2.13979
   C       -9.20832        17.10488         3.42605
   C      -10.18152        18.01123         3.76341
   C      -10.61694        18.97222         2.83421
   C      -10.06771        19.01159         1.56091
   C       -9.09315        18.09511         1.22201
   C      -11.63695        19.78641         3.45884
   C      -11.83708        19.32408         4.77135
   C      -10.92571        18.15589         5.06941
   C      -11.73232        16.88504         5.39612
   C      -12.71085        16.50529         4.29125
   C       -9.96612        18.47105         6.23170
   C       -9.13090        19.72177         5.98601
   C      -12.76207        19.91744         5.59369
   C      -13.51701        21.00116         5.11956
   C      -13.29634        21.45571         3.81154
   C      -12.37058        20.86105         2.97842
   C      -14.51683        21.67004         5.92227
   C      -14.92502        21.30357         7.14943
   C      -15.93181        21.96269         7.94544
   C      -16.60481        23.12078         7.60261
   C      -17.57866        23.70398         8.42826
   C      -17.93221        23.16465         9.63677
   C      -17.27982        21.98907        10.03960
   C      -16.27958        21.38782         9.19806
   N      -15.76944        20.28332         9.74107
   S      -16.47924        20.03234        11.16304
   N      -17.46434        21.30051        11.16800
   H        7.80284         2.81928         6.03796
   H        6.30244         7.10059         8.11197
   H        7.39007         6.46953        10.18773
   H        8.72872         4.87690        11.50556
   H        9.48873         2.76144        10.49860
   H        8.91412         2.22086         8.16517
   H        4.70529         5.09889         2.36475
   H        3.25725         6.72838         0.85533
   H       -0.61921         8.25982        -1.42246
   H        2.92239         8.03355        -4.77256
   H        4.17580         7.44660        -3.66366
   H        3.96885         9.17739        -3.91763
   H       -0.15565        11.43973         5.13255
   H       -0.63531         9.52827         9.61013
   H        0.77458         8.48230         9.38942
   H       -0.84062         7.84603         9.08487
   H       -1.88263        10.75333         3.77819
   H       -2.97885        12.14815        -0.70516
   H       -7.50007        16.36169        -0.38233
   H       -8.87132        16.36247         4.13606
   H      -10.39292        19.74840         0.84220
   H       -8.65592        18.13040         0.23669
   H      -12.28213        17.05023         6.32488
   H      -11.03492        16.06119         5.56254
   H      -13.42886        17.30484         4.12290
   H      -13.25617        15.60587         4.56764
   H      -12.18425        16.31562         3.35839
   H       -9.30354        17.61561         6.38008
   H      -10.55296        18.60123         7.14323
   H       -8.52339        19.60929         5.09061
   H       -8.46941        19.90141         6.83033
   H       -9.77102        20.59199         5.85889
   H      -12.90553        19.55663         6.60011
   H      -13.87493        22.29338         3.44804
   H      -12.22181        21.22695         1.97344
   H      -14.96717        22.53415         5.45084
   H      -14.50401        20.43165         7.62923
   H      -16.37943        23.60658         6.66590
   H      -18.06121        24.60957         8.09067
   H      -18.68033        23.60948        10.27209
*
