# ORCA input file
# SCF done       -212.912847500860          0.000336145115
! CAM-B3LYP def2-SVP def2/J RIJCOSX Grid4 TightSCF
%maxcore 5000
%tddft
    Mode sTDDFT
    Ethresh 5.0
    maxcore 5000
end

%pal
  nprocs 6
  end
* xyz 0 1
   C        1.21587         2.21076         1.79375
   C        1.80116         3.41454         1.50122
   C        3.05325         3.54193         0.86268
   N        4.06308         3.70677         0.34369
   C        1.27886         4.66712         1.87982
   N        0.92639         5.71354         2.19706
   C        1.84902         0.90810         1.63813
   C        1.18788        -0.02534         2.49133
   C        1.59993        -1.32376         2.58663
   C        2.70083        -1.75606         1.81343
   C        3.35011        -0.83323         0.94180
   C        2.90678         0.50661         0.86688
   C        4.44056        -1.28067         0.16849
   C        4.87458        -2.57551         0.25466
   C        4.23728        -3.48227         1.11501
   C        3.17363        -3.08161         1.87753
   C        0.06425         0.64114         3.16909
   O       -0.69200         0.19252         3.99710
   C       -0.00068         2.00589         2.55890
   C       -1.11956         2.75738         2.70455
   C       -1.49799         3.87203         1.90834
   C       -1.18029         4.10892         0.58132
   C       -1.69955         5.31689         0.12697
   C       -2.41516         6.00735         1.12175
   S       -2.48722         5.14876         2.58993
   C       -2.81461         7.26062         0.59384
   C       -2.37493         7.35198        -0.74242
   C       -1.65442         6.13413        -1.07606
   C       -1.00921         5.83328        -2.23891
   C       -0.99792         6.70335        -3.35040
   N       -0.98191         7.40383        -4.25721
   C       -0.29089         4.62744        -2.38817
   N        0.29489         3.64708        -2.49066
   C       -2.68319         8.57986        -1.32668
   C       -3.29188         9.43692        -0.42884
   S       -3.57352         8.68278         1.13507
   C       -3.66426        10.79253        -0.66590
   N       -4.14214        11.17713        -1.83369
   C       -4.48637        12.47598        -1.68238
   C       -4.20211        12.94252        -0.31717
   C       -4.56336        14.36440        -0.16396
   O       -4.45843        15.06585         0.81486
   C       -5.07747        14.70281        -1.50630
   C       -5.01291        13.52149        -2.39734
   N       -5.45463        13.83658        -3.63997
   C       -5.77054        15.10572        -3.58004
   C       -5.54936        15.71210        -2.27998
   C       -3.62445        11.88996         0.33669
   C       -3.02069        11.84496         1.63104
   C       -1.94973        11.06489         1.90312
   C       -1.31380        10.90567         3.16383
   C       -1.49165        11.58830         4.35491
   C       -0.68257        11.08010         5.37012
   C        0.10413         9.99017         4.95035
   S       -0.13450         9.60866         3.30792
   C        0.88401         9.54381         6.04377
   C        0.61009        10.36837         7.15571
   C       -0.39814        11.34466         6.77384
   C       -0.97437        12.29121         7.56711
   C       -0.65400        12.44123         8.93436
   N       -0.42718        12.56709        10.05068
   C       -1.96327        13.17385         7.08109
   N       -2.77149        13.88808         6.69275
   C        1.36283        10.03779         8.27609
   C        2.20322         8.95912         8.03862
   S        2.02431         8.33425         6.39544
   C        3.10081         8.27916         8.89059
   C        3.72165         8.75087        10.01141
   C        4.55705         7.95411        10.89139
   C        4.53791         6.58789        11.00281
   C        5.34662         5.85962        11.89967
   N        5.98366         5.21352        12.60296
   C        3.68352         5.73481        10.27357
   N        3.00324         4.98735         9.72797
   C        5.34858         8.86756        11.70356
   C        4.94486        10.20014        11.40499
   C        3.88434        10.18224        10.38319
   O        3.32769        11.14660         9.90476
   C        5.51783        11.28064        12.01117
   C        6.54404        11.07300        12.95991
   C        6.95690         9.74270        13.26121
   C        6.34203         8.64312        12.61937
   C        7.98729         9.54887        14.20346
   C        8.58322        10.61610        14.81869
   C        8.17621        11.92518        14.52108
   C        7.17715        12.14872        13.61271
   H        1.09292        -2.01338         3.24497
   H        3.40598         1.18241         0.19007
   H        4.92959        -0.57781        -0.48966
   H        5.71232        -2.90824        -0.33945
   H        4.59299        -4.50011         1.17028
   H        2.67922        -3.77573         2.54112
   H       -1.81210         2.43884         3.47666
   H       -0.61881         3.41455        -0.01738
   H       -2.45069         8.88018        -2.33209
   H       -6.15859        15.61048        -4.44771
   H       -5.73649        16.73767        -2.03033
   H       -3.42639        12.51452         2.37599
   H       -1.50761        10.48418         1.10317
   H       -2.16272        12.42062         4.46094
   H        1.30776        10.53867         9.22390
   H        3.34623         7.27313         8.56917
   H        5.19261        12.28132        11.76830
   H        6.68154         7.64833        12.86125
   H        8.29636         8.53905        14.43029
   H        9.37221        10.45714        15.53836
   H        8.65843        12.75561        15.01464
   H        6.85920        13.15433        13.37951
*
