# ORCA input file
# SCF done       -233.384691322547          0.000463037081
! CAM-B3LYP def2-SVP def2/J RIJCOSX Grid4 TightSCF
%maxcore 5000
%tddft
    Mode sTDDFT
    Ethresh 5.0
    maxcore 5000
end

%pal
  nprocs 6
  end
* xyz 0 1
   C       -0.93858         0.33742         1.18193
   C       -0.11631         1.30417         0.66703
   C        0.88161         1.05108        -0.29542
   N        1.69160         0.89605        -1.09423
   C       -0.11068         2.64465         1.10397
   N       -0.01110         3.72958         1.46548
   C       -0.79923        -1.09779         0.96354
   C       -1.48705        -1.78409         2.00715
   C       -1.49747        -3.14688         2.08328
   C       -0.81653        -3.89795         1.09876
   C       -0.13913        -3.21817         0.04551
   C       -0.14096        -1.80546        -0.00610
   C        0.53302        -3.97957        -0.93220
   C        0.53984        -5.34640        -0.87275
   C       -0.12733        -6.01493         0.16462
   C       -0.79066        -5.30625         1.12912
   C       -2.13715        -0.80004         2.89260
   O       -2.75842        -1.00719         3.90992
   C       -1.92182         0.51968         2.23362
   C       -2.67180         1.58744         2.59599
   C       -2.89287         2.81117         1.87102
   C       -3.12529         3.99828         2.58179
   C       -3.33010         5.16578         1.89118
   C       -3.36194         5.16943         0.48543
   C       -3.17825         3.99185        -0.22582
   C       -2.93302         2.82710         0.46975
   C       -3.62662         6.51889         0.03475
   C       -3.75349         7.34846         1.16095
   C       -3.55183         6.55795         2.43179
   C       -4.78868         6.62437         3.34553
   C       -6.06089         6.15173         2.65216
   C       -2.31110         7.05251         3.20133
   C       -1.03707         7.01204         2.36608
   C       -4.02932         8.68784         1.01521
   C       -4.18847         9.22185        -0.26688
   C       -4.04937         8.38867        -1.37913
   C       -3.76748         7.04303        -1.24113
   C       -4.51259        10.64337        -0.44136
   C       -5.44825        11.02994        -1.40547
   C       -5.77205        12.35973        -1.54970
   C       -5.12242        13.32810        -0.76813
   C       -4.18531        12.95646         0.18271
   C       -3.89752        11.61480         0.34824
   C       -5.60379        14.63757        -1.16037
   C       -6.55039        14.47835        -2.18467
   C       -6.73276        13.01180        -2.52548
   C       -6.25358        12.66821        -3.95142
   C       -7.04564        13.28719        -5.09581
   C       -8.20663        12.64593        -2.25373
   C       -8.59492        11.19025        -2.47892
   C       -7.21179        15.57612        -2.68642
   C       -6.89906        16.85263        -2.21017
   C       -5.92889        16.99806        -1.21852
   C       -5.28782        15.89843        -0.68004
   C       -7.60090        18.02746        -2.74235
   C       -6.90265        19.20995        -3.00388
   C       -7.57936        20.30076        -3.49736
   C       -8.96227        20.23427        -3.73681
   C       -9.66320        19.06579        -3.47878
   C       -8.97528        17.97367        -2.98598
   C       -9.40189        21.51363        -4.24967
   C       -8.28924        22.37004        -4.32832
   C       -7.04195        21.66793        -3.84763
   C       -6.44545        22.36738        -2.61173
   C       -7.43353        22.47432        -1.45620
   C       -5.97994        21.59239        -4.96048
   C       -6.50968        20.96203        -6.24237
   C       -8.41885        23.65181        -4.79954
   C       -9.68281        24.10543        -5.21002
   C      -10.79589        23.25763        -5.07429
   C      -10.66387        21.96508        -4.61629
   C       -9.89916        25.42797        -5.72440
   C       -9.05296        26.19594        -6.46346
   C       -9.32761        27.56281        -6.87988
   C      -10.24962        28.40960        -6.32279
   C      -10.46078        29.73698        -6.75003
   N      -10.68361        30.82146        -7.05422
   C      -11.08696        28.09704        -5.23103
   N      -11.78713        27.93144        -4.33568
   C       -8.38684        27.90992        -7.93603
   C       -7.49548        26.81636        -8.12154
   C       -7.84463        25.72381        -7.19406
   O       -7.28346        24.65234        -7.11513
   C       -6.49287        26.85130        -9.04705
   C       -6.33247        28.00589        -9.84524
   C       -7.22492        29.10262        -9.67069
   C       -8.25467        29.03643        -8.70459
   C       -7.05880        30.24767       -10.47630
   C       -6.05905        30.30914       -11.40826
   C       -5.18021        29.22897       -11.57853
   C       -5.31373        28.10234       -10.81340
   H       -2.01867        -3.64759         2.88572
   H        0.37153        -1.31539        -0.81937
   H        1.04757        -3.45995        -1.72722
   H        1.05988        -5.92051        -1.62496
   H       -0.11272        -7.09417         0.19569
   H       -1.30568        -5.81565         1.93052
   H       -3.22135         1.47219         3.52564
   H       -3.09931         3.98184         3.66143
   H       -3.22352         3.98475        -1.30449
   H       -2.80955         1.89808        -0.06917
   H       -4.92099         7.65528         3.68045
   H       -4.60577         6.00847         4.22846
   H       -6.27425         6.76748         1.78111
   H       -6.90551         6.21580         3.33440
   H       -5.95980         5.11908         2.32516
   H       -2.18117         6.43043         4.08932
   H       -2.49792         8.07622         3.53463
   H       -0.80715         5.99599         2.05643
   H       -0.20023         7.38931         2.94936
   H       -1.14083         7.62918         1.47601
   H       -4.14923         9.32574         1.87870
   H       -4.14423         8.81340        -2.36784
   H       -3.65856         6.41433        -2.11232
   H       -5.91492        10.27149        -2.01497
   H       -3.68238        13.70166         0.78106
   H       -3.15797        11.31296         1.07554
   H       -6.26528        11.58198        -4.05804
   H       -5.21120        12.98935        -4.03149
   H       -8.09862        13.02397        -5.03900
   H       -6.65699        12.91733        -6.04281
   H       -6.95042        14.36921        -5.09598
   H       -8.83202        13.28023        -2.88455
   H       -8.42240        12.91053        -1.21471
   H       -8.35978        10.86755        -3.48974
   H       -9.66738        11.07788        -2.33094
   H       -8.09093        10.53733        -1.77226
   H       -7.96433        15.47367        -3.45320
   H       -5.70538        17.98488        -0.83982
   H       -4.56044        16.02118         0.10868
   H       -5.83650        19.24977        -2.83464
   H      -10.72712        19.00888        -3.65496
   H       -9.51278        17.06442        -2.75951
   H       -6.11721        23.36739        -2.90226
   H       -5.56531        21.80872        -2.28603
   H       -8.31143        23.04462        -1.75201
   H       -6.96779        22.97516        -0.61048
   H       -7.75906        21.48713        -1.13515
   H       -5.13012        21.01389        -4.59102
   H       -5.63224        22.60293        -5.18127
   H       -6.91519        19.97076        -6.04897
   H       -5.70685        20.87076        -6.97012
   H       -7.29103        21.58243        -6.67409
   H       -7.57192        24.31646        -4.83023
   H      -11.76853        23.62672        -5.36714
   H      -11.52577        21.31944        -4.53876
   H      -10.88811        25.82867        -5.53010
   H       -5.82952        26.00762        -9.16816
   H       -8.91895        29.87969        -8.60127
   H       -7.73748        31.07700       -10.34065
   H       -5.93983        31.19077       -12.02011
   H       -4.39692        29.29432       -12.31893
   H       -4.63989        27.26745       -10.93979
*
