# ORCA input file
# SCF done       -177.691604219163          0.000331638812
! CAM-B3LYP def2-SVP def2/J RIJCOSX Grid4 TightSCF
%maxcore 5000
%tddft
    Mode sTDDFT
    Ethresh 5.0
    maxcore 5000
end

%pal
  nprocs 6
  end
* xyz 0 1
   C        6.32097         0.57485         8.60497
   N        5.46166        -0.12280         9.28057
   C        4.27681         0.00956         8.60324
   C        4.44562         0.85890         7.42077
   C        3.17585         0.99873         6.70216
   O        2.94069         1.62300         5.68879
   C        2.24864         0.18773         7.52297
   C        2.97276        -0.39643         8.67557
   N        2.12951        -1.14308         9.43836
   C        0.96821        -1.05854         8.84723
   C        0.97014        -0.24107         7.64285
   C        5.77216         1.23410         7.41125
   C        6.51566         2.04937         6.52419
   C        5.96820         2.64183         5.43032
   C        6.66363         3.47181         4.52616
   C        6.13128         4.09911         3.40851
   C        7.07588         4.86233         2.73019
   C        8.34990         4.82037         3.33268
   S        8.37875         3.84225         4.72698
   C        9.23374         5.63498         2.58294
   C        8.52296         6.19086         1.50762
   C        7.14553         5.72762         1.56335
   C        6.13535         6.05771         0.70842
   C        4.82358         5.55758         0.85004
   N        3.75353         5.15956         0.95303
   C        6.33895         6.93785        -0.37505
   N        6.50719         7.66166        -1.24874
   C        9.30509         7.02012         0.70214
   C       10.60750         7.11207         1.15748
   S       10.86737         6.13874         2.59975
   C       11.69355         7.86695         0.62886
   S       13.31330         7.49983         1.15058
   C       13.96616         8.75275         0.15729
   C       12.97671         9.41754        -0.53269
   C       11.68438         8.91447        -0.27676
   C       10.46777         9.48096        -0.93835
   C       10.76012        10.82228        -1.60692
   C       12.04388        10.72615        -2.43631
   C       12.23825        11.98509        -3.23571
   O       12.36368        12.04480        -4.42433
   C       13.22936        10.54772        -1.48090
   C       15.38580         9.00051         0.12166
   C       16.02638        10.20607         0.00503
   O       17.35920        10.04561         0.00608
   C       17.60493         8.73993         0.13341
   C       16.43961         8.02643         0.22089
   C       16.29421         6.55926         0.23164
   O       15.37803         5.99290        -0.33655
   C       17.34539         5.82798         0.92208
   C       18.25144         6.24310         1.87328
   C       19.09987         5.22580         2.30580
   C       18.84972         4.01443         1.68668
   S       17.52300         4.13763         0.57920
   C       19.56064         2.79349         1.86797
   C       20.68228         2.58645         2.64773
   C       21.13674         1.26818         2.56945
   C       20.35221         0.46989         1.72695
   S       19.05870         1.33475         1.03045
   C       20.90341        -0.84542         1.71208
   C       22.03013        -0.86723         2.54127
   C       22.21939         0.45558         3.10928
   C       23.20330         0.86179         3.96244
   C       23.27774         2.18647         4.44138
   N       23.33919         3.26347         4.83060
   C       24.21220        -0.01142         4.42060
   N       25.03578        -0.71555         4.79550
   C       22.64322        -2.13411         2.58218
   C       21.98083        -3.02937         1.79826
   S       20.60043        -2.36228         0.99205
   H        7.34721         0.64159         8.92544
   H        0.11141        -1.56757         9.25378
   H        0.11897        -0.04985         7.01957
   H        7.56504         2.19458         6.75128
   H        4.91787         2.48652         5.21488
   H        5.09974         3.98995         3.12607
   H        8.94709         7.50159        -0.18570
   H        9.66793         9.60708        -0.20501
   H       10.11562         8.77459        -1.69671
   H       10.88114        11.59806        -0.84764
   H        9.91737        11.09737        -2.24272
   H       11.98385         9.87464        -3.12003
   H       12.26128        12.90112        -2.60933
   H       13.36518        11.47410        -0.91238
   H       14.14955        10.36324        -2.03982
   H       15.65549        11.20842        -0.05787
   H       18.62911         8.42396         0.10489
   H       18.28035         7.24510         2.26095
   H       19.86938         5.36400         3.04279
   H       21.14354         3.35873         3.23426
   H       23.52071        -2.37499         3.15380
   H       22.21802        -4.06179         1.63663
*
