# ORCA input file
# SCF done       -167.748561105345          0.000685711165
! CAM-B3LYP def2-SVP def2/J RIJCOSX Grid4 TightSCF
%maxcore 5000
%tddft
    Mode sTDDFT
    Ethresh 5.0
    maxcore 5000
end

%pal
  nprocs 6
  end
* xyz 0 1
   C        0.65673         1.31624         0.97449
   N       -0.52143         0.78190         1.10449
   C       -1.16697         1.03222        -0.07835
   C       -0.30670         1.77159        -0.99024
   C       -0.99635         2.04272        -2.25469
   O       -0.58848         2.62396        -3.23923
   C       -2.32442         1.42411        -2.03110
   C       -2.38073         0.81644        -0.68806
   N       -3.59321         0.24793        -0.46971
   C       -4.27453         0.46393        -1.56878
   C       -3.54284         1.19353        -2.58400
   C        0.88648         1.96902        -0.31780
   C        2.04076         2.64593        -0.76743
   C        3.18174         2.81667        -0.04247
   C        4.31682         3.51168        -0.50660
   C        4.51617         4.14295        -1.72612
   C        5.76566         4.73900        -1.82406
   C        6.56280         4.56649        -0.65014
   S        5.73368         3.66308         0.54867
   C        7.78582         5.19778        -0.84229
   C        7.78898         5.78402        -2.14304
   C        6.51265         5.49832        -2.78451
   C        6.12466         5.88314        -4.04626
   C        4.85907         5.57482        -4.57016
   N        3.82568         5.33637        -5.01070
   C        6.96133         6.61068        -4.90507
   N        7.63205         7.20245        -5.62676
   C        8.94546         6.45236        -2.44872
   C        9.89122         6.41079        -1.40441
   S        9.26739         5.49278        -0.01768
   C       11.16164         6.95360        -1.34015
   C       11.81376         7.72584        -2.30254
   C       13.12525         8.20912        -2.20805
   C       13.53963         8.94178        -3.30132
   C       12.56401         9.06893        -4.28733
   S       11.10822         8.24138        -3.81653
   C       12.60959         9.72219        -5.53237
   C       13.67598        10.36069        -6.15866
   C       13.34240        10.84613        -7.40591
   C       12.01507        10.61196        -7.78869
   S       11.17213         9.78028        -6.51493
   C       11.52351        10.96335        -9.05658
   C       10.30024        10.76752        -9.65997
   C        9.15108        10.19356        -9.03611
   C        7.96254         9.82812        -9.75474
   N        7.03869         9.33177        -8.94274
   S        7.58132         9.30736        -7.42593
   N        9.02732         9.94408        -7.74097
   C        7.81551         9.99889       -11.16180
   C        8.88844        10.75884       -11.76920
   C        8.92028        11.21910       -13.06094
   S       10.34363        12.09117       -13.42163
   C       10.93987        11.85168       -11.83711
   C       10.08190        11.13330       -11.04671
   C        6.77698         9.49672       -11.92216
   C        5.67024         8.70262       -11.60011
   C        4.77612         8.25209       -12.59083
   C        3.76701         7.44758       -12.13086
   C        3.83070         7.23253       -10.74647
   S        5.18655         8.09258       -10.04412
   C        2.97947         6.46186        -9.96077
   C        1.83704         5.74092       -10.39424
   C        1.19232         5.07701        -9.40346
   C        1.78970         5.22677        -8.11140
   S        3.22043         6.26868        -8.24939
   C        1.39141         4.69687        -6.94452
   H        1.36586         1.25446         1.78199
   H       -5.28670         0.10913        -1.65944
   H       -3.92273         1.47015        -3.54809
   H        1.97403         3.05155        -1.76767
   H        3.24668         2.40786         0.95664
   H        3.77329         4.16266        -2.50204
   H        9.12721         6.94951        -3.38218
   H       11.72789         6.75881        -0.43810
   H       13.74284         8.00888        -1.35027
   H       14.51598         9.38223        -3.39463
   H       14.65274        10.45047        -5.71781
   H       14.03689        11.35636        -8.05101
   H       12.27939        11.43131        -9.67524
   H        8.17905        11.11683       -13.82723
   H       11.88884        12.27777       -11.58245
   H        6.83095         9.71681       -12.98118
   H        4.89838         8.52482       -13.62486
   H        3.00632         7.01943       -12.75857
   H        1.52986         5.73987       -11.42481
   H        0.30871         4.47855        -9.53600
   H        0.51887         4.06878        -6.89156
   H        1.93584         4.87606        -6.03526
*
