# ORCA input file
# SCF done       -175.035009163411          0.000469074084
! CAM-B3LYP def2-SVP def2/J RIJCOSX Grid4 TightSCF
%maxcore 5000
%tddft
    Mode sTDDFT
    Ethresh 5.0
    maxcore 5000
end

%pal
  nprocs 6
  end
* xyz 0 1
   C        5.52019        -3.32611         0.08617
   S        6.61687        -2.29620        -0.72786
   C        6.13292        -0.93169         0.25088
   C        5.17443        -1.31036         1.17344
   C        4.82793        -2.67790         1.06655
   C        3.82679        -3.35364         1.95554
   C        2.96675        -2.33873         2.71354
   C        1.85803        -1.80398         1.81452
   F        2.26076        -1.37686         0.61219
   F        0.93528        -2.75543         1.57661
   F        1.19796        -0.77794         2.37868
   C        3.84049        -1.22110         3.28795
   C        4.54569        -0.41688         2.19599
   C        6.76511         0.31327        -0.01865
   C        6.39629         1.53858         0.42589
   C        7.09165         2.73121         0.12564
   S        8.55509         2.80572        -0.84072
   C        8.71684         4.54334        -0.67869
   C        7.65901         5.02936         0.09613
   C        6.77111         4.01173         0.53168
   S        5.50187         4.70693         1.48636
   C        6.26677         6.27189         1.21541
   N        7.32751         6.28086         0.50876
   C        9.78193         5.24344        -1.25599
   C        9.93231         6.60005        -1.09750
   C       10.97684         7.36042        -1.61498
   C       11.09299         8.71875        -1.38505
   C       12.10661         9.59566        -1.82145
   C       11.95210        10.88804        -1.39934
   C       10.80317        11.09253        -0.61357
   S        9.91784         9.59790        -0.42566
   C       10.34752        12.25736        -0.01349
   C       10.91617        13.54369        -0.00931
   C       10.20342        14.45658         0.71526
   C        9.02545        13.94381         1.30678
   S        8.86884        12.24426         0.92036
   C        8.17221        14.65389         2.12351
   C        6.95956        14.25714         2.69574
   S        6.32288        15.25114         4.01166
   C        4.90361        14.26199         4.23964
   C        4.92191        13.22810         3.30707
   C        6.06272        13.22027         2.45929
   S        5.89931        11.93179         1.31071
   C        4.37337        11.52360         2.08355
   N        4.01029        12.24956         3.06645
   C        3.92335        14.48759         5.22098
   C        3.96679        15.47999         6.14784
   C        2.98271        15.68495         7.14338
   S        1.55867        14.69176         7.23941
   C        0.97492        15.55736         8.63010
   C        1.84320        16.57536         8.97969
   C        2.97484        16.64186         8.14810
   C        4.06469        17.65915         8.31231
   C        3.96957        18.39037         9.65459
   C        4.59445        17.54520        10.75894
   F        4.19047        16.27016        10.79165
   F        5.93394        17.50350        10.62863
   F        4.35542        18.04870        11.98266
   C        2.51978        18.76901         9.96365
   C        1.62757        17.53742        10.10591
   C       -0.27611        15.12307         9.18873
   C       -0.77578        15.40633        10.39083
   H        5.44197        -4.35589        -0.20063
   H        4.35790        -3.97010         2.68683
   H        3.19410        -4.02101         1.36513
   H        2.44143        -2.84400         3.53222
   H        4.58553        -1.68850         3.93480
   H        3.23392        -0.55072         3.89919
   H        5.31010         0.21259         2.65773
   H        3.82624         0.24510         1.70402
   H        7.62484         0.25755        -0.67615
   H        5.51588         1.67848         1.03375
   H        5.83089         7.15276         1.64328
   H       10.50260         4.67555        -1.82860
   H        9.18359         7.11725        -0.51125
   H       11.74276         6.88182        -2.21121
   H       12.92408         9.25136        -2.43064
   H       12.63184        11.68748        -1.63501
   H       11.83014        13.76546        -0.53065
   H       10.48521        15.48767         0.83762
   H        8.50205        15.64952         2.39392
   H        3.80017        10.69602         1.71381
   H        3.09747        13.78816         5.21220
   H        4.80747        16.16161         6.14063
   H        3.99001        18.39741         7.50784
   H        5.04230        17.17796         8.22416
   H        4.58201        19.29867         9.61889
   H        2.15934        19.38845         9.14012
   H        2.47590        19.36163        10.87898
   H        0.58123        17.85034        10.12481
   H        1.83886        17.03590        11.05482
   H       -0.83716        14.46669         8.53430
   H       -0.26067        16.00377        11.11896
   H       -1.72974        15.00873        10.69105
*
