# ORCA input file
# SCF done       -174.933743428146          0.000553182185
! CAM-B3LYP def2-SVP def2/J RIJCOSX Grid4 TightSCF
%maxcore 5000
%tddft
    Mode sTDDFT
    Ethresh 5.0
    maxcore 5000
end

%pal
  nprocs 6
  end
* xyz 0 1
   C       -6.46373         0.97752         3.21500
   C       -6.29696         2.33581         3.07364
   C       -5.39475         3.10672         3.83486
   N       -4.67724         3.79308         4.41176
   C       -7.02341         3.16551         2.20057
   N       -7.59560         3.91297         1.53908
   C       -5.77413         0.14948         4.19870
   C       -6.29664        -1.16434         4.13134
   C       -5.86842        -2.17622         4.95351
   C       -4.86108        -1.88273         5.87964
   C       -4.33790        -0.56942         5.93458
   C       -4.78024         0.45735         5.10951
   S       -3.10517        -0.42322         7.15124
   C       -3.30788        -2.10493         7.56338
   C       -4.24875        -2.74520         6.82908
  Br       -2.26012        -2.85725         8.92494
   C       -7.35196        -1.22113         3.09564
   O       -8.12038        -2.13942         2.91618
   C       -7.34416         0.11633         2.45252
   C       -8.06516         0.51703         1.35671
   C       -8.76637        -0.29751         0.43800
   C       -9.70338         0.21583        -0.45074
   O      -10.40434        -0.58744        -1.30483
   C      -10.16078        -1.92890        -1.21412
   C       -9.17790        -2.44708        -0.32508
   C       -9.08584        -3.79824        -0.37402
   S      -10.20050        -4.45599        -1.51400
   C      -10.79697        -2.89385        -1.92453
   O       -8.42614        -1.62863         0.45354
   C      -10.05850         1.59872        -0.53829
   C      -11.01537         2.04748        -1.38650
   C      -11.45126         3.39831        -1.57534
   C      -11.32644         4.45930        -0.75477
   C      -10.74237         4.44479         0.61530
   C      -11.86719         5.79738        -1.18833
   N      -12.84084         6.27060        -0.23058
   C      -13.21832         7.58438        -0.16341
   C      -14.32251         8.01203         0.47135
   C      -14.73274         9.37867         0.62337
   N      -14.15796        10.41475        -0.07892
   C      -14.75523        11.57479         0.23591
   C      -15.76166        11.31979         1.16595
   C      -15.73483         9.91011         1.41287
   C      -16.56576         9.16114         2.39576
   C      -16.57340        12.34922         1.71152
   C      -17.68189        12.21006         2.48799
   C      -18.47604        13.27416         2.96531
   C      -18.21001        14.61097         3.10670
   C      -16.99988        15.39568         3.11965
   C      -15.74570        14.98191         3.50022
   C      -14.62248        15.82742         3.56349
   N      -13.66989        16.46808         3.60739
   C      -15.45271        13.67704         3.93877
   N      -15.16997        12.63620         4.33267
   C      -17.38170        16.79184         2.90810
   C      -18.79170        16.89316         2.99330
   C      -19.35886        15.54382         3.20101
   O      -20.52333        15.25351         3.37024
   C      -19.45566        18.08827         2.86911
   C      -18.69206        19.23722         2.63505
   C      -17.28613        19.12335         2.53628
   C      -16.61287        17.91485         2.67332
   S      -16.54078        20.66324         2.22728
   C      -18.10768        21.42831         2.24107
   C      -19.13657        20.57743         2.46248
  Br      -18.23689        23.27804         1.95354
   H       -6.29480        -3.16463         4.88419
   H       -4.35201         1.44184         5.19483
   H       -4.50257        -3.78227         6.95182
   H       -8.06525         1.57048         1.13324
   H       -8.43682        -4.43246         0.19128
   H      -11.56909        -2.77674        -2.65562
   H       -9.50670         2.29145         0.06788
   H      -11.50193         1.31897        -2.02207
   H      -11.97933         3.55730        -2.50865
   H      -10.98188         3.52069         1.13684
   H      -11.12491         5.28680         1.18791
   H       -9.65712         4.53841         0.57406
   H      -12.28862         5.72936        -2.20366
   H      -11.04384         6.52078        -1.21085
   H      -13.55315         5.60002         0.02053
   H      -12.51041         8.26781        -0.61252
   H      -14.97213         7.27751         0.92432
   H      -13.39923        10.30882        -0.73083
   H      -14.45871        12.50763        -0.20260
   H      -17.60159         9.08626         2.06211
   H      -16.54419         9.66726         3.35937
   H      -16.17868         8.15493         2.53063
   H      -16.28874        13.34908         1.40321
   H      -18.06020        11.22139         2.69076
   H      -19.50647        13.01958         3.19991
   H      -20.53032        18.13702         2.94810
   H      -15.53964        17.87709         2.58600
   H      -20.16746        20.87869         2.50180
*
