# ORCA input file
# SCF done       -217.603102184480          0.000717249226
! CAM-B3LYP def2-SVP def2/J RIJCOSX Grid4 TightSCF
%maxcore 5000
%tddft
    Mode sTDDFT
    Ethresh 5.0
    maxcore 5000
end

%pal
  nprocs 6
  end
* xyz 0 1
   C       -6.61648         5.98515         7.34808
   C       -6.47208         7.34307         7.45269
   C       -6.06017         8.00620         8.62820
   N       -5.73433         8.60081         9.55417
   C       -6.68741         8.26327         6.40496
   N       -6.83460         9.07017         5.60133
   C       -6.34296         5.01520         8.39938
   C       -6.49476         3.71067         7.86838
   C       -6.30512         2.57705         8.62111
   C       -5.94841         2.73747         9.96358
   C       -5.80089         4.04498        10.48714
   C       -5.99247         5.19081         9.72607
   S       -5.36130         4.01401        12.16775
   C       -5.37969         2.27032        12.14459
   C       -5.69870         1.73651        10.94136
  Br       -4.97845         1.32012        13.71045
   C       -6.86987         3.79429         6.44332
   O       -7.05386         2.86170         5.69315
   C       -7.01424         5.24725         6.15837
   C       -7.61638         5.77096         5.05996
   C       -7.93539         5.04234         3.85976
   C       -7.00873         4.21757         3.28177
   S       -7.48298         3.55244         1.78403
   C       -9.03150         4.33132         1.92289
   C       -9.14840         5.11915         3.07711
   C      -10.37488         5.76984         3.34342
   C      -10.48037         6.63220         4.57279
   C      -10.04020         8.07048         4.28305
   C      -11.44667         5.62920         2.46975
   C      -12.75017         6.32944         2.75059
   C      -13.66592         5.47240         3.63073
   C      -11.32660         4.82394         1.31160
   C      -12.26929         4.53826         0.25026
   C      -11.70056         3.78598        -0.73859
   S      -10.07031         3.33631        -0.45788
   C      -10.09155         4.21063         1.04125
   C      -13.67360         4.88395         0.18755
   C      -14.31643         5.15813        -0.96786
   C      -15.70563         5.41894        -1.13178
   S      -16.38617         5.19124        -2.70478
   C      -18.00591         5.58461        -2.19758
   C      -18.01101         5.87941        -0.81488
   C      -16.70561         5.81904        -0.22796
   C      -16.53392         6.19306         1.11867
   C      -17.62535         6.51352         1.87231
   F      -17.46026         6.86899         3.15768
   C      -18.92236         6.46504         1.32421
   F      -19.97732         6.72766         2.10872
   C      -19.11714         6.16658         0.00389
   C      -19.00570         5.56471        -3.17849
   C      -20.28892         6.04775        -3.08920
   C      -21.22011         5.94762        -4.12052
   C      -22.50320         6.45288        -4.04290
   C      -23.51517         6.38194        -5.02208
   C      -24.69161         6.97265        -4.65517
   C      -24.66319         7.54365        -3.36738
   S      -23.10305         7.30425        -2.62951
   C      -25.68041         8.22429        -2.71104
   C      -26.98768         8.47706        -3.16737
   C      -27.74891         9.18822        -2.28277
   C      -27.07780         9.52886        -1.08986
   S      -25.44351         8.91697        -1.12306
   C      -27.59194        10.26724        -0.03803
   C      -26.88262        10.55525         1.11973
   C      -27.27906        11.33532         2.18759
   C      -28.34659        12.28171         2.34168
   C      -28.95915        13.01690         1.35071
   C      -29.97380        13.96297         1.58865
   N      -30.81779        14.73149         1.71992
   C      -28.57502        13.00787        -0.00368
   N      -28.28098        13.08203        -1.11192
   C      -28.52649        12.50861         3.77690
   C      -27.46595        11.87485         4.47045
   C      -26.60963        11.16490         3.49485
   O      -25.59485        10.54107         3.72143
   C      -27.33347        11.93825         5.83496
   C      -28.30121        12.65142         6.55232
   C      -29.36388        13.26672         5.85228
   C      -29.49312        13.21032         4.46870
   S      -30.45302        14.08394         6.93266
   C      -29.47484        13.59720         8.29160
   C      -28.39035        12.85996         7.95662
  Br      -29.97987        14.10782        10.02510
   H       -6.42813         1.59755         8.18631
   H       -5.87356         6.16417        10.17182
   H       -5.75692         0.68064        10.74988
   H       -7.84903         6.82601         5.05690
   H       -6.02037         4.01894         3.64707
   H       -9.85445         6.20069         5.35720
   H      -11.49895         6.64245         4.95593
   H       -9.05623         8.09998         3.82114
   H      -10.00676         8.65039         5.20244
   H      -10.73483         8.55277         3.59941
   H      -13.23583         6.55919         1.80102
   H      -12.57017         7.28115         3.24762
   H      -13.86150         4.50479         3.17287
   H      -14.61268         5.97869         3.80695
   H      -13.20048         5.28280         4.59498
   H      -12.19107         3.41019        -1.61527
   H      -14.23079         4.81390         1.10504
   H      -13.74906         5.14882        -1.89031
   H      -15.55791         6.25962         1.56305
   H      -20.12498         6.13940        -0.37017
   H      -18.70222         5.14752        -4.13194
   H      -20.61416         6.56383        -2.19947
   H      -20.93979         5.43963        -5.03395
   H      -23.34897         5.89771        -5.96821
   H      -25.56719         7.01317        -5.27733
   H      -27.33699         8.13323        -4.12419
   H      -28.76738         9.48573        -2.45660
   H      -28.61222        10.60586        -0.14402
   H      -25.93185        10.04868         1.26064
   H      -26.51036        11.45321         6.33576
   H      -30.32358        13.69302         3.98093
   H      -27.68108        12.47748         8.66775
*
