# ORCA input file
# SCF done       -188.839960956112          0.000799031976
! CAM-B3LYP def2-SVP def2/J RIJCOSX Grid4 TightSCF
%maxcore 5000
%tddft
    Mode sTDDFT
    Ethresh 5.0
    maxcore 5000
end

%pal
  nprocs 6
  end
* xyz 0 1
   C       -4.41131         6.32594        -6.70465
   C       -4.80517         7.10634        -7.75978
   C       -3.95870         8.01194        -8.43329
   N       -3.31877         8.76932        -9.01191
   C       -6.09329         7.10190        -8.33489
   N       -7.11237         7.14979        -8.86254
   C       -3.06907         6.26654        -6.14321
   C       -3.03453         5.26066        -5.14612
   C       -1.89982         4.96663        -4.42951
   C       -0.74277         5.70085        -4.70887
   C       -0.78637         6.70448        -5.70675
   C       -1.93290         7.00103        -6.43203
   S        0.75143         7.49284        -5.88781
   C        1.42244         6.47906        -4.63773
   C        0.54272         5.59393        -4.11146
  Br        3.21953         6.68735        -4.14411
   C       -4.36467         4.62979        -5.03091
   O       -4.67007         3.72585        -4.28506
   C       -5.23586         5.37151        -5.98017
   C       -6.59279         5.31452        -6.00663
   C       -7.41339         4.32260        -5.36624
   C       -7.10057         2.99280        -5.44993
   S       -8.30295         1.94401        -4.84435
   C       -9.27641         3.31181        -4.38343
   C       -8.68727         4.53763        -4.71520
   C       -9.33153         5.73760        -4.33348
   C       -8.61921         7.03895        -4.60122
   C       -9.07709         7.71375        -5.89662
   C      -10.56949         5.69802        -3.69859
   C      -11.32069         6.97231        -3.41368
   C      -12.54525         7.10349        -4.32263
   C      -11.16340         4.45295        -3.36661
   C      -12.40864         4.12940        -2.69742
   C      -12.61053         2.78062        -2.62919
   S      -11.35575         1.82630        -3.30088
   C      -10.49715         3.27033        -3.73325
   C      -13.36332         5.02549        -2.08297
   C      -14.68627         4.78125        -2.00852
   C      -15.61451         5.63350        -1.34459
   S      -15.06029         7.10746        -0.60883
   C      -16.65421         7.48533        -0.09508
   C      -17.57884         6.56306        -0.46153
   C      -19.01013         6.70610        -0.06008
   C      -16.99794         5.47474        -1.19837
   C      -17.66194         4.32616        -1.72652
   C      -18.99395         4.11795        -1.90164
   C      -19.56382         2.94249        -2.45282
   C      -18.89565         1.83908        -2.90733
   C      -19.53238         0.72061        -3.45766
   C      -18.87612        -0.38043        -3.95435
   C      -19.46030        -1.52841        -4.53789
   C      -18.56327        -2.46037        -4.96513
   C      -17.21455        -2.10422        -4.74124
   S      -17.12395        -0.54064        -3.96277
   C      -16.08633        -2.83034        -5.06993
   C      -16.02897        -4.08319        -5.72096
   C      -14.76512        -4.54293        -5.92298
   C      -13.74571        -3.68145        -5.44086
   S      -14.46651        -2.25659        -4.71360
   C      -12.39944        -3.91207        -5.53123
   C      -11.35665        -3.09137        -5.06787
   S      -11.56000        -1.56847        -4.21601
   C       -9.87343        -1.29175        -4.04742
   C       -9.15474        -2.31337        -4.62219
   C       -9.99570        -3.31853        -5.18859
   O       -9.26237        -4.30591        -5.74503
   C       -7.96605        -3.94237        -5.54287
   N       -6.95962        -4.80367        -6.03452
   O       -5.80784        -4.45317        -5.84952
   O       -7.30323        -5.82069        -6.59904
   C       -7.82735        -2.75522        -4.87347
   H       -1.90568         4.19411        -3.67659
   H       -1.91688         7.77729        -7.17864
   H        0.78829         4.89445        -3.33340
   H       -7.12264         6.05122        -6.59381
   H       -6.23225         2.57014        -5.91540
   H       -7.54644         6.83822        -4.65049
   H       -8.76140         7.72558        -3.76469
   H       -9.03643         7.02503        -6.73763
   H       -8.44246         8.56826        -6.12204
   H      -10.10118         8.06473        -5.80832
   H      -10.68689         7.83954        -3.57634
   H      -11.62590         7.00216        -2.36855
   H      -12.24169         7.09044        -5.36715
   H      -13.05966         8.04034        -4.12122
   H      -13.24411         6.28738        -4.16238
   H      -13.43343         2.27696        -2.16134
   H      -12.98519         5.92073        -1.61431
   H      -15.08703         3.90513        -2.49776
   H      -16.81788         8.38405         0.46706
   H      -19.10805         7.51323         0.66288
   H      -19.37477         5.78618         0.39316
   H      -19.63320         6.94746        -0.92082
   H      -17.00053         3.53313        -2.04331
   H      -19.69904         4.88858        -1.63747
   H      -20.64452         2.93085        -2.52828
   H      -17.81553         1.80055        -2.86480
   H      -20.61375         0.71551        -3.50969
   H      -20.52805        -1.62734        -4.62622
   H      -18.83444        -3.38960        -5.43283
   H      -16.91742        -4.60651        -6.02513
   H      -14.52374        -5.47385        -6.40443
   H      -12.08151        -4.82590        -6.01601
   H       -9.52259        -0.41204        -3.55129
   H       -6.90334        -2.28417        -4.61011
*
