# ORCA input file
# SCF done       -149.601138616157          0.000251950692
! CAM-B3LYP def2-SVP def2/J RIJCOSX Grid4 TightSCF
%maxcore 5000
%tddft
    Mode sTDDFT
    Ethresh 5.0
    maxcore 5000
end

%pal
  nprocs 6
  end
* xyz 0 1
   C       -3.32848        -1.29036         2.70440
   C       -2.49365        -1.58014         1.69791
   C       -2.26219        -0.82141         0.50139
   C       -1.35707        -1.36641        -0.33959
   C       -0.79789        -2.59507         0.11496
   S       -1.47662        -3.03008         1.67092
   C        0.13387        -3.37387        -0.52582
   C        0.75329        -3.13820        -1.77986
   C        1.63012        -4.10427        -2.15486
   C        1.76470        -5.16930        -1.22464
   S        0.72142        -4.87749         0.16158
   C        2.55937        -6.27472        -1.35139
   C        2.63880        -7.29908        -0.39058
   N        3.38017        -8.33549        -0.58948
   N        3.42990        -9.28068         0.33524
   C        4.15087       -10.42867         0.16816
   C        4.88295       -10.65297        -1.00679
   C        5.58610       -11.81870        -1.17209
   C        5.58286       -12.79916        -0.16605
   C        4.85975       -12.56478         1.01352
   C        4.15433       -11.39941         1.17901
   C        6.29476       -14.02709        -0.34976
   O        6.28173       -14.96829         0.62939
   C        7.04317       -14.51341        -1.40944
   C        7.54626       -14.22436        -2.75352
   O        7.42151       -13.25789        -3.46272
   N        8.25986       -15.37179        -3.09669
   C        8.27926       -16.37353        -2.12989
   O        8.83679       -17.43481        -2.23795
   C        7.48654       -15.80591        -1.03638
   C        6.99797       -16.05824         0.23138
   C        7.13671       -17.19707         1.05775
   C        6.61168       -17.28832         2.30990
   C        6.70857       -18.40567         3.15662
   C        7.23617       -19.64808         3.00615
   C        7.11407       -20.52750         4.11977
   C        6.48513       -20.03309         5.21647
   S        6.01079       -18.33050         4.82573
   O        6.73175       -17.39455         5.64550
   O        4.58047       -18.18841         4.78007
   C        6.18067       -20.57314         6.47973
   C        6.42752       -21.84975         6.87422
   C        6.10508       -22.34869         8.16116
   O        5.54610       -21.55376         9.11441
   C        6.26417       -23.61345         8.69566
   C        6.73557       -24.97144         8.41610
   O        7.22034       -25.45601         7.42698
   N        6.49683       -25.65143         9.61015
   C        5.92595       -24.89241        10.63067
   O        5.64883       -25.30237        11.72653
   C        5.77646       -23.56359        10.02622
   C        5.34367       -22.27437        10.24623
   C        4.76813       -21.67299        11.41578
   C        4.40228       -20.39426        11.48657
   H       -3.92838        -0.39777         2.68034
   H       -3.42598        -1.93167         3.56101
   H       -2.78827         0.10043         0.32732
   H       -1.06450        -0.93306        -1.27953
   H        0.53024        -2.26380        -2.36452
   H        2.19143        -4.09704        -3.07245
   H        3.16047        -6.38346        -2.24184
   H        2.04708        -7.19001         0.52712
   H        2.89102        -9.17162         1.19992
   H        4.87165        -9.89244        -1.76998
   H        6.14263       -11.99023        -2.07979
   H        4.85970       -13.31472         1.78903
   H        3.59503       -11.22653         2.08729
   H        8.72923       -15.46693        -3.98599
   H        7.70078       -18.00903         0.62394
   H        6.06990       -16.44527         2.71729
   H        7.72195       -19.98304         2.10330
   H        7.51361       -21.52799         4.06407
   H        5.70422       -19.89005         7.17030
   H        6.88651       -22.56663         6.21027
   H        6.72243       -26.62902         9.72791
   H        4.65429       -22.34929        12.25074
   H        4.52252       -19.72998        10.64752
   H        3.97553       -19.98119        12.38308
*
