116
 SCF done       -223.384523352077          0.000741243735
C           0.60510256632233   -3.56113283372449    4.72529528867298
C           1.88713063527941   -3.34008221155851    5.20226020059609
C           2.88915556959077   -3.00832958553629    4.28964235850880
C           4.20637517526651   -2.77277560523350    4.75477770125779
N           5.26904113114946   -2.58328825209153    5.13683534755240
C           2.61575732893815   -2.90244034852465    2.91150927395972
C           3.65324973977502   -2.57048856204726    2.00856054694247
N           4.47960443706231   -2.30839834502846    1.25982909740468
C           1.32180053051872   -3.12006405395519    2.43636669984617
C           0.33783292396441   -3.44061404377103    3.34741695863012
C          -1.10162845354028   -3.69686230397219    3.09451491011665
O          -1.66741868969145   -3.65389635054854    2.02489802696084
C          -1.68554667320887   -3.96520257913937    4.42698019578738
C          -0.62039333152279   -3.95805777120885    5.41169731784287
C          -0.71283976270802   -4.40133571690539    6.69930518799959
C           0.36229381834469   -4.42246772870591    7.61177307875587
N           1.20066341182124   -4.46067125187559    8.39471214471378
C          -1.86620318685668   -5.00728872384110    7.24317502705705
N          -2.73444695418995   -5.57167193424196    7.73802849319462
C          -3.01763594413054   -4.06919614957993    4.63696039129720
C          -3.97991530842620   -4.26386349933366    3.55826640183816
C          -4.95454206044558   -3.29129805225596    3.29721848281374
C          -4.82540507585540   -2.06456521508252    4.08960590548676
O          -3.86507982214276   -1.88613692064212    4.81524549357510
C          -5.91308130494848   -1.05607736870295    3.96926946035157
C          -6.07614491598849   -0.12902033977382    2.99500829991665
S          -7.46449728247617    0.85777911672603    3.27043336372842
C          -7.82425985601659    0.02109137552519    4.71908940248207
C          -6.91800114711799   -0.96740356604070    4.98379129703931
C          -6.92133734435096   -1.96052245078978    6.07239624841211
O          -6.34687893809461   -3.02322099314072    5.91359910270342
C          -7.63889004590354   -1.62239030692481    7.31905683161148
C          -7.70903158248702   -0.31647043861889    7.80078351161397
C          -8.36752606988082   -0.05339346666834    8.98770170728689
C          -8.96370926146465   -1.08296378605468    9.69867871315842
C          -8.88265063824685   -2.38601768979055    9.23327807245231
C          -8.21409029049251   -2.65735599811309    8.05553946452970
C          -5.92898187424975   -3.53183486153540    2.33354803290227
C          -5.93833848003082   -4.72310744932516    1.63798252642527
C          -4.96048196030001   -5.69048427615523    1.87896016470826
C          -3.97778236747079   -5.44071494263730    2.83102819772926
C          -4.95928417897914   -6.98131174631566    1.16957963306032
C          -6.03618575769967   -7.45823049619814    0.29837209032644
C          -6.11988277105687   -8.81426436347050    0.31600144330087
C          -5.17334435977769   -9.35964976807029    1.22231563946467
C          -4.38398962552539   -8.23948101765230    1.74860402627554
S          -3.27439587132756   -7.46929950105419    0.45809463729500
C          -4.92385045251665  -10.62931423178859    1.71440830800872
C          -4.07468341769576  -10.72751322648870    2.88537770069498
C          -3.67059154871319   -9.57274494755512    3.52634686904504
O          -3.85405901575435   -8.34212323393500    3.00782092091813
C          -3.13847695531598   -9.52328857947170    4.87989562745836
C          -3.68127994100271  -10.22397109928638    5.92509841297219
S          -2.96912662157741   -9.81886243642542    7.42687282014408
C          -1.92981603017556   -8.68924260169055    6.67273715163949
C          -2.10643099311787   -8.62965169912192    5.32118389711273
C          -1.25512249404578   -7.78261517214390    4.45756374786306
O          -0.87444270718846   -6.68614981203624    4.82621040069132
C          -0.85989658483702   -8.34918669812305    3.15083444704975
C          -0.78702193229367   -9.72537203975842    2.93183741831421
C          -0.40811537855661  -10.20917041043716    1.69460823985604
C          -0.09128687315216   -9.33169377470773    0.66896591909638
C          -0.13389272727129   -7.96446019077525    0.88696599590501
C          -0.51166934170124   -7.47473866292219    2.12252099022695
C          -3.73715146448098  -12.02921194272670    3.35945067665098
C          -4.29496893510667  -13.13547618894190    2.81882207677586
C          -5.24257491147539  -13.03621971870316    1.74809037485669
C          -5.49316167063416  -11.80524546096259    1.18772112040119
C          -5.89903968505392  -14.19691598269686    1.21949184627883
C          -6.21815757752945  -15.35097638210163    1.85953103926283
C          -6.56389665417324  -16.56127640868348    1.06458946468981
O          -6.80493446650054  -16.61284450205295   -0.11672223640047
C          -6.49413290725061  -17.68585304263026    2.02689231125969
C          -6.61661926379374  -19.03628382598358    1.77872736597620
C          -6.48611031547583  -19.91773663026225    2.85360272836618
C          -6.23140537734126  -19.42283723927696    4.14709179031189
C          -6.11823039556264  -18.05244839388434    4.38919271596728
C          -6.25569651019897  -17.18156785026963    3.32148044828490
C          -6.22487471686204  -15.71976362669440    3.26038929401142
C          -6.41492671649884  -14.88061071099690    4.32618859651135
C          -6.67577737035628  -13.49768042343005    4.21760114217095
N          -6.97004947399668  -12.38809186167315    4.21221201616533
C          -6.46859798479651  -15.31613787164186    5.66742232722844
N          -6.49412754428268  -15.62012650835490    6.77343385691379
C          -6.08480309029236  -20.33348528592275    5.22326674593437
N          -5.96229538209040  -21.06196532628373    6.09760272067963
C          -6.60464764395394  -21.31265284810785    2.64184818142568
N          -6.70240230416531  -22.43726091262610    2.45097231752246
H           2.13094504248518   -3.41179770115384    6.25061260463145
H           1.09642832078242   -3.03893693456793    1.38348266906955
H          -3.42269041058492   -4.13288703522182    5.63954897485567
H          -5.46209766296822    0.04336226704911    2.13371552235103
H          -8.70100859715948    0.28001250643611    5.27905312449320
H          -7.21793369209533    0.48378522452808    7.26759510428130
H          -8.41250564648964    0.95818172153868    9.36292227717711
H          -9.48146803954190   -0.87019814568352   10.62201744843959
H          -9.33517742864750   -3.19010399816250    9.79378133914746
H          -8.13155944646092   -3.66687980831482    7.68154453561860
H          -6.67859303685987   -2.78223898970336    2.12802700179944
H          -6.70565840028342   -4.90060606198700    0.90153451152543
H          -3.20486403004055   -6.16735921508498    3.02032402709976
H          -6.64751428353909   -6.80582744760471   -0.29567506331317
H          -6.81578676932134   -9.39907740562123   -0.25593917883040
H          -4.50075863455170  -10.91485659645269    5.88264534790013
H          -1.21665673223348   -8.13858057671772    7.25339790726653
H          -0.99112893337421  -10.41510948594759    3.73765933108829
H          -0.35689157794318  -11.27553696817977    1.53013195590390
H           0.19513669225571   -9.71534023913058   -0.29849463141053
H           0.11570027024131   -7.27947208247113    0.09186671188317
H          -0.56656165377022   -6.41080493518380    2.30001116409216
H          -3.01059356993933  -12.11466690659119    4.15284944547337
H          -3.99944065446520  -14.11679049966881    3.15833560399222
H          -6.16027873350818  -11.72160980280341    0.34350007642288
H          -6.14049343879918  -14.17759265204172    0.16133769877989
H          -6.80767835126883  -19.40128558858999    0.78102811627589
H          -5.91857130664191  -17.70827250741131    5.39180218813119
