102
 SCF done       -189.448620128827          0.001255840301
C          -4.90628902503706   -6.07555303495571    3.60242998813825
C          -4.98040876706681   -4.71502552720510    3.32914851860451
C          -3.90923643891633   -4.00963763168535    2.65869699067441
N          -4.08283885468954   -2.74118984728942    2.29973240596121
C          -5.18442720232757   -2.10647262472554    2.63712563830771
C          -6.18199750940179   -2.76366655456154    3.43081804754903
N          -6.07560532274963   -4.03142298979471    3.72531064029852
C          -7.30626979847017   -2.02827383304596    3.88639765881255
N          -8.19369550717494   -1.39398167704168    4.23499146594437
C          -5.35781449573778   -0.77061128300208    2.21069789071758
N          -5.51013697960623    0.31811298763420    1.88485507334695
C          -2.70470059166564   -4.67887916298769    2.27229843708321
C          -2.64378425507758   -6.05930068935435    2.59166746021054
C          -3.74223432696612   -6.74682969709369    3.23887403489152
N          -3.45462361452118   -8.03309029210859    3.46536002264109
S          -1.96196846523340   -8.32636560552311    2.94894530414432
N          -1.59737135364283   -6.85898543985530    2.41817931619811
C          -1.70654747357729   -4.04043937091664    1.51602945056520
C          -1.30004664671505   -2.68955225896768    1.52924096254865
C          -1.49219512266302   -1.69495467634039    2.49744862482038
C          -0.88531106212106   -0.47378680521766    2.33455402656317
C          -0.03867691305348   -0.22819555149991    1.24311013944946
C           0.20703698144860   -1.19809310764629    0.29903082770109
C          -0.44185588822871   -2.43482533599421    0.40420998729430
C          -0.32162474371405   -3.61218951248093   -0.37402420749285
C          -1.02419337472012   -4.70280139353301    0.36586956031792
O          -1.14112113541020   -5.85625543550413    0.01757991757967
C           0.20858937283078   -3.76761796385137   -1.66442815775404
C           0.26936253636597   -2.64288089702883   -2.54827592690401
C           0.74810783711913   -2.80345596641576   -3.80946184944243
C           0.86753414355060   -1.85863754599070   -4.92213507822181
C           0.51572938787143   -0.41361225434151   -4.82073026692427
C           1.62112899752024    0.49375893070323   -5.39352149809659
N           1.56546250880572    1.77971159848155   -4.72907961982709
C          -0.84697708271505   -0.15074729064038   -5.48991775157816
N          -1.27762967521026    1.21838364688188   -5.25400746229469
C           1.35945399740504   -2.55620911345315   -5.98797212519772
C           1.67701471087629   -2.11524989649842   -7.34917602795322
C           2.17987286859547   -3.17458450275561   -8.29442076659110
C           2.29215236611208   -4.54769144452378   -7.82139488585097
C           2.03662438417341   -4.90247632972112   -6.53894634292433
C           1.58669777543664   -3.94015039716218   -5.60856701882835
C           1.20899542508751   -4.08480187523487   -4.26291292018452
C           1.15284974997416   -5.18762565919152   -3.40189927702722
C           0.64196912974076   -5.03185914276662   -2.14058607873161
C           3.13331430639496   -2.07002365179283   -7.78345434990223
C           4.20371314460822   -2.40840104407467   -6.86933287266330
C           5.46408260738396   -1.94270275192317   -6.87246064951036
C           6.18357223811434   -0.94696957244867   -7.64443802127834
C           5.72780681578006    0.13565999998658   -8.37531960834021
C           6.64569810687130    0.94954476969737   -9.02317689995549
C           8.00910390307113    0.69045948104173   -8.94402605119772
C           8.48975718461426   -0.36852979385549   -8.19628405246070
C           7.58461857890167   -1.18944712540224   -7.52852094456942
C           7.79392204110194   -2.35649840620248   -6.72368987443321
C           6.49453409534283   -2.63884796835456   -6.05506430079292
O           6.31229612702024   -3.19428777951527   -4.99336626948368
C           8.86080592218341   -3.24680857925168   -6.60249775013178
C           8.53250895044310   -4.62248846806293   -6.33852099316076
C           9.52080916161421   -5.58420358634397   -5.92201915102547
N           9.11427892728399   -6.80561109144571   -5.51593694364505
C           7.84792129858925   -7.11865230453608   -5.60980693453131
C           6.92520232500221   -6.24458681122034   -6.27061681714423
N           7.29853903440983   -5.02631911572558   -6.60952271338944
C           5.61090790348809   -6.65014805275459   -6.58358477110985
N           4.53098583330579   -6.96579645322998   -6.80908463750953
C           7.39342172560646   -8.36597361876456   -5.11119502777274
N           6.98020265864934   -9.36279517801490   -4.72637065703536
C          10.87320665987664   -5.26417639097375   -5.92256211340660
C          11.23444780741086   -3.98435179563662   -6.34102332648448
C          10.25285632158009   -2.97273943208362   -6.69305667042271
N          10.83003767647172   -1.81748284497845   -6.99598102741154
S          12.43402437370122   -1.97550342202911   -6.88137305179934
N          12.48116488812601   -3.51266411404760   -6.42471212896181
H          -5.71380787169812   -6.57536007804886    4.10919546382661
H          -2.09162223711335   -1.89503673778999    3.37069721695294
H          -1.03538531934529    0.30352487215830    3.06843292198043
H           0.44865219130406    0.73198032055705    1.16302760936293
H           0.92226836876061   -1.01753433607423   -0.48857903635933
H          -0.14530168790597   -1.70207888457819   -2.22155096555532
H           0.42290029218006   -0.14777016990493   -3.76307508877987
H           1.50614959167334    0.56332385796115   -6.48683296546855
H           2.59805535595101    0.04466661161392   -5.18539455710648
H           0.66470389364731    2.20896541574785   -4.92081357964680
H           2.29921445087272    2.39241821124731   -5.06581561710200
H          -1.56500265208173   -0.90179676697974   -5.11831888259831
H          -0.75577485649819   -0.28920694340768   -6.57085121935537
H          -1.47428285996277    1.35429070552948   -4.26701691852996
H          -2.13137371299449    1.41203601952040   -5.76640133521224
H           1.04884220243429   -1.33115201246576   -7.75321519088590
H           1.94392030872645   -3.07659559787332   -9.34761246592412
H           2.58152098726158   -5.29680958443962   -8.54256560956244
H           2.14928562664365   -5.92887014963492   -6.22730849404315
H           1.50844634682114   -6.15193013076290   -3.73225214634238
H           0.58491841187752   -5.87562522163248   -1.47325121248827
H           3.37910946298410   -1.33245464124072   -8.53504697372145
H           3.99262433761624   -3.18357244054459   -6.14234543517305
H           4.67479505840005    0.36582243747226   -8.42818671681172
H           6.29562740935113    1.79720970289635   -9.59439459568694
H           8.70300031021890    1.33563172158413   -9.46222725659085
H           9.54775224098972   -0.54983946087348   -8.10058742483329
H          11.61042318574958   -5.97567916400853   -5.59338604287005
