106
 SCF done       -199.255914701828          0.000789029427
C           5.54374296196040  -11.71264338439337   10.39506298735080
C           6.64805541550670  -12.37577286798001    9.88905804020426
C           7.02722428557903  -11.82613196763547    8.62119185235694
N           8.07867612699516  -12.31571353099482    7.92039674150331
C           8.78237874250396  -13.31134648299449    8.40917876808793
C           8.48180442181363  -13.89089989916635    9.65034052463183
C           7.41622755646006  -13.44554889323680   10.39245498118767
C           6.22195404105437  -10.76733644446068    8.21214641772423
S           5.00253734184820  -10.45305105465355    9.38228533962174
C           6.55368659370092  -10.02650632715980    7.03288104395036
C           6.08662133488269   -8.77558880919644    6.64447210560119
C           5.01296680510812   -7.95321048241820    7.21006378596723
O           4.30297335219674   -8.18489765004131    8.16301302706773
N           4.94705315559551   -6.80385833749882    6.42140456516244
C           5.91850625203883   -6.80718739184337    5.40692374921843
O           6.09579456873581   -5.93496910698882    4.60019495118629
C           6.65221051577234   -8.08830220698541    5.56215805975002
C           7.74007284811293   -8.57429218144133    4.86706187155613
C           8.20932325750302   -9.83832366917158    5.24511658500147
C           7.58539157011385  -10.56125782249703    6.24233008727069
C           7.99916783102739  -11.99914234082217    6.35930078623853
O           7.34437934067499  -12.88494804646497    5.81400128236009
S           9.87349257264986  -11.85610444089951    5.71622299679588
C           9.46140793521854  -10.45349815538606    4.72940577379798
O          10.14497329496683  -10.02396773496246    3.84292479746865
C           3.97636717536773   -5.83477635979210    6.66710338853224
C           3.77771363924337   -4.73393228019400    5.93509580929445
C           2.73531287267372   -3.75691255385804    6.17399555079138
C           2.00594286391435   -3.69670383666896    7.34083024084265
C           0.97705874714550   -2.74631825962729    7.47764486090204
C           0.09474326669474   -2.50542441071734    8.52788823350114
C           0.08566321662284   -3.18445922845710    9.85282021150803
C           0.25520255128985   -2.16945917281220   11.00350846194131
N           0.86628759639714   -2.83039097288855   12.14181871427466
C          -1.17564043672593   -4.04969219912082   10.02660596245336
N          -1.12601791411434   -5.14873369111272    9.08057932575171
C          -0.79346629822705   -1.45229488330325    8.09221278665300
C          -1.86476745691710   -0.88000717272122    8.67564141920219
C          -2.62831393619826    0.21214825481669    8.00938478903583
C          -2.11111766866356    0.61516221930112    6.66695744937263
C          -1.05965804362839    0.00892480114517    6.08131176542363
C          -0.38053268250075   -1.03892270866981    6.74333438821167
C           0.69247991343245   -1.83746570477810    6.38007648423779
C           1.47683384042252   -1.89688838666820    5.20894696068726
C           2.46681234370349   -2.82487222033915    5.12122900177128
C          -2.62164374217366    1.37474704851732    8.96835568548338
C          -3.71533658809992    1.93385970869827    9.47121261745950
C          -3.67017388078012    2.98949176380376   10.47380176056574
C          -2.89527494378203    2.87665136696400   11.62951160819238
C          -2.09189351379895    1.74636315925716   12.12814084580757
O          -1.90002805547813    0.64959447176965   11.65624030374102
N          -1.56879380105789    2.16098705303857   13.36056427544260
C          -1.98451971997952    3.44957888721093   13.70963195008064
O          -1.68350583329099    4.04424820861160   14.71398427814865
C          -2.85720406230904    3.89065942398080   12.60087695679156
C          -3.58134887610358    5.05994317244383   12.47335314520768
C          -4.37263732669930    5.17546022049551   11.33518775106407
C          -4.42375845718138    4.16885918732426   10.36271945008799
C          -5.30531919836285    4.46518757074892    9.22903277874008
O          -5.52061142157071    3.79251572526122    8.26059247801082
S          -6.07059858475699    6.07201218494274    9.49237215038167
C          -5.21906005015200    6.34329726907331   11.05585857235848
O          -5.35824732052666    7.32862541713534   11.71803279174933
C          -0.75230905890833    1.30998116337711   14.09397888332268
C          -0.22995021409369    1.57295365799876   15.30050325059821
C           0.60050724089039    0.66395084265490   16.01432109886490
C           1.16207052374541    0.84581700712381   17.27547002831707
C           1.94832548819068   -0.28453854197776   17.70097690029346
N           2.58611608355021   -0.33534350961468   18.89262708294142
C           2.46564659697621    0.69752656228357   19.66870316669779
C           1.71953167694917    1.86139931403388   19.35355797963147
C           1.06523453391472    1.94281502683012   18.15847155103780
C           1.96886630559989   -1.29207347315588   16.76122746298391
S           1.05243739617768   -0.88939021863300   15.38266317373166
H           5.04125656863362  -11.91357359709730   11.32023314805417
H           9.59533290557662  -13.66601463074736    7.79259580642532
H           9.09861519713003  -14.70171357065141   10.00199949475120
H           7.16032318685185  -13.89766944130903   11.33817080206498
H           8.21973500922576   -8.01657744318066    4.07864498205201
H           3.36780566576344   -6.09599434280435    7.52240982949287
H           4.40343395704448   -4.55345362428339    5.07373385585111
H           2.20810838801507   -4.37349948529432    8.15541817043647
H           0.94242949123781   -3.86138265030199    9.90295178410716
H          -0.70978984893483   -1.69445214660089   11.23327447128147
H           0.94242493156974   -1.38417375216524   10.67594386656918
H           0.23010275921995   -3.50486380261529   12.55186133911000
H           1.11610598120355   -2.16009472932613   12.85933071041568
H          -2.07257275204913   -3.41729445316944    9.91886097513667
H          -1.18297171083471   -4.48372251541990   11.03010225850247
H          -1.12207021030061   -4.79413688052045    8.12969406740262
H          -1.92763321887145   -5.75887445420532    9.19015023933787
H          -2.19879887882439   -1.14246066715566    9.66777891969462
H          -3.67310022188103   -0.11250253102737    7.89316283129947
H          -2.63863423054333    1.42327196984695    6.18419773846169
H          -0.72275502814565    0.31510495887750    5.10160804201897
H           1.28275699941398   -1.21168936417151    4.39714559317826
H           3.07294663232016   -2.88538807766499    4.22920982594115
H          -1.63872414764811    1.72596591581506    9.24787497149841
H          -4.70006656220337    1.63934286700714    9.13451274308483
H          -3.55132952961237    5.83985285119307   13.21726711326918
H          -0.57287841932930    0.37325535536846   13.58143231038232
H          -0.43309275260784    2.51652585029305   15.78340147643065
H           2.98369366047958    0.63515618433619   20.61723287936028
H           1.67916880146848    2.67000999785456   20.06635588054504
H           0.48827423139277    2.81477452748719   17.88740269379381
H           2.47435623630555   -2.23383999193317   16.82126427634986
