110
 SCF done       -205.917892838608          0.000821640640
C          -6.35850334380651    1.46774438036329   -0.36264139934458
N          -7.39628544831178    0.99087335424878    0.33898449121337
C          -7.10292885741052   -0.12428404517454    0.91517581457300
C          -7.35311051016696   -0.78524569698996    2.08815683616976
C          -5.16602604096373    0.80248028592952   -0.29325077581868
S          -5.47663452155658   -0.84956907361422    0.25758487924344
N          -5.12658773865503   -1.46981050632777    1.74618636073024
C          -6.22702647411679   -1.53434793825811    2.49276569275949
C          -6.14261378217337   -2.34341788486994    3.68675366812329
C          -7.18060075915930   -2.62477310401134    4.48629928922030
C          -7.08825745689545   -3.48859087175934    5.64549276320719
C          -6.02704757718500   -3.45872819652257    6.55897211246835
C          -4.90009022264073   -2.49782226603904    6.68639897528250
O          -4.66437348054502   -1.51142734610022    6.03765395932602
N          -4.14874658054454   -2.94196985345637    7.77995640932079
C          -4.71011532445796   -4.06930167300137    8.38996650859021
O          -4.24588743543315   -4.64199017828090    9.34002650268085
C          -5.94124163609557   -4.36200912843277    7.62451882079316
C          -6.90378538606814   -5.32293887436260    7.86744430992663
C          -7.98909317059372   -5.33035953606352    6.99993261635944
C          -8.08714372924840   -4.44609406779632    5.92284666314036
C          -9.30121070433320   -4.62880126110387    5.11169363994576
O          -9.63960723598571   -4.03759946270926    4.12817976371166
S         -10.29455242078231   -5.95079879026917    5.82645496944461
C          -9.11738394504149   -6.26863475387257    7.14267821926999
O          -9.26567610085788   -7.11041184589020    7.97644145201463
C          -2.96029673403263   -2.40040655381070    8.26704722119994
C          -2.41849915588420   -1.24154903981089    7.88010525751592
C          -1.17226936940116   -0.69811462752434    8.37962343644124
C          -0.89592142223053    0.63321777088645    8.15298317781372
C           0.30867898662277    1.19804777110923    8.61077383470453
C           0.80761366090395    2.49615760463034    8.51848583701424
C           0.10000071947555    3.65380113259048    7.90918107374854
C          -0.52846842048734    4.57639702779773    8.98076409689505
N           0.47341175809255    5.07886470530186    9.90537608718406
C           0.97309248138284    4.49299889713118    6.95984322936621
N           0.10812265053370    5.22620104702167    6.05091890477215
C           2.10834546395069    2.48603031280227    9.14604307429250
C           3.01127115458151    3.46608189599954    9.34863516213345
C           4.30675265888828    3.19822542708189   10.03193575082039
C           4.50667782727932    1.79011349909182   10.47650579191445
C           3.59060663244482    0.82264809666881   10.27193690850247
C           2.37558752767670    1.12190837606783    9.61688888874153
C           1.26785066015043    0.35080882196654    9.29646225038223
C           0.96417028565932   -1.00891349791555    9.51369471407435
C          -0.22205636598175   -1.50981869620395    9.07330574452762
C           4.47589287859766    4.20854631138322   11.13961712393876
C           4.43046521696786    3.89781697623430   12.42995705682371
C           4.58416743905840    4.85167133115746   13.51652961457306
C           3.72441668270653    4.79581068092568   14.61634634302108
C           2.60715904014928    3.86031597062846   14.87512025247377
O           2.19056814931968    2.97370500274687   14.17013371204406
N           2.10159703817425    4.21603838811364   16.12797019390516
C           2.76999794772401    5.32394551486297   16.67775058151001
O           2.50828427731451    5.82929965892453   17.73543479768594
C           3.81186320062509    5.68459634341769   15.69326445085028
C           4.76315214170877    6.68493928660274   15.73598569357562
C           5.64911818856349    6.73335820628130   14.66588754234489
C           5.58292522567976    5.84333653520524   13.58484830051931
C           6.69455381399619    5.99417597097371   12.63145946018626
O           6.95866560779305    5.33838749154621   11.66511176906206
S           7.73236283941113    7.37425565447626   13.14649673350853
C           6.74995686240612    7.70878595640329   14.60917230189247
O           6.99060962113902    8.58647543171914   15.38294883151940
C           1.09041305010259    3.58282793943490   16.83974930716305
C           0.40175643850552    2.50803906580916   16.44624507916057
C          -0.60075315658855    1.92032396005163   17.30347728312894
N          -0.79766785088655    2.40432915237013   18.55373241954279
C          -1.70580961747270    1.74772866791799   19.18099706142453
C          -1.97255066034114    1.28270195874692   20.44203910787724
C          -1.31876665872527    0.79409390007139   16.95068900852721
S          -2.71173127408320    0.63156308203848   18.01456524490658
N          -2.88195441017130   -0.50127710168378   19.20608730939950
C          -2.63810458159900    0.03903370279804   20.39463041731839
C          -3.01357127351641   -0.68028880319932   21.59947481596736
C          -3.61832977965739   -1.86273916268717   21.59121061014904
H          -6.48313134410682    2.40252116073565   -0.88638978314067
H          -8.24050884203158   -0.65086301214311    2.67376510116193
H          -4.29929253824659    0.99396442022523   -0.89383382775212
H          -5.16146250758149   -2.75331146620764    3.87660617795804
H          -8.17249977663730   -2.27756554952881    4.23651061332544
H          -6.83266442554140   -6.01794973715634    8.68846602280165
H          -2.53110461872865   -3.03148551834754    9.03364386730494
H          -2.93315570471647   -0.63569181911669    7.14923856919884
H          -1.61402073632106    1.24532663994378    7.62649975581223
H          -0.73412931728671    3.26367259393325    7.31654399993129
H          -1.33767114649206    4.02304446105347    9.48208015109419
H          -0.96203084468769    5.42529226231775    8.44856085051475
H           0.72070069986732    4.36531401750453   10.58314298205256
H           0.11383761388413    5.87877429037685   10.41223012037142
H           1.69078539005402    3.83201050520920    6.44545924915892
H           1.52951635898394    5.22923389905724    7.54032966928113
H          -0.35582225027152    4.59147076801184    5.40933657350928
H           0.64520058699167    5.88582990811607    5.50016894184327
H           2.81378530166472    4.48636306911171    9.06014808897425
H           5.10574781101116    3.43339224377369    9.30771982781600
H           5.44495718979707    1.58030819652264   10.96656645691151
H           3.77240665203712   -0.18912840656376   10.60344749770862
H           1.67653002994424   -1.64128172994715   10.02235850572751
H          -0.44770078407684   -2.55347107118367    9.22416870669991
H           4.60659335510541    5.23061419350830   10.81502716634049
H           4.19850381232343    2.88632115185633   12.73562115170211
H           4.83747662894304    7.38061324342024   16.55623622142992
H           0.90545757017991    4.04068523541146   17.80273341566059
H           0.57077019105523    2.03478212236661   15.49264255705982
H          -1.61563483910351    1.73989150524094   21.34453474485942
H          -1.36796520875948    0.37804424398470   15.96364835533073
H          -2.76848981825012   -0.18147767563138   22.52744161427747
H          -3.85677834182163   -2.34684955787025   20.66006946141934
H          -3.88918366199691   -2.36934329957069   22.50169178520562
