112
 SCF done       -207.734213617494          0.000598571892
C           1.05351214653738   -4.64648949944203    3.21594795235877
C           0.37472009596437   -5.15331120551650    4.27511597004875
C          -0.85369962070480   -5.98878060876028    4.24036848177959
F          -1.25074188252204   -6.22321886641599    2.98239947050622
F          -0.68554045949687   -7.19084778460482    4.82053855916702
F          -1.89424264452206   -5.41720385239376    4.87240619643049
S           1.09531399376107   -4.72456956578632    5.79837300568307
C           2.33761147213248   -3.84417811679847    4.97119021273670
O           3.30996625295021   -3.20713571681825    5.60280181590847
C           3.32067213399501   -3.25063437193803    7.01378615671631
C           2.19491507017879   -3.88439163513445    3.58610192613759
C           3.10785654706207   -3.22352484694438    2.71005090789841
C           3.03227427034991   -3.20868757127241    1.35726753209603
C           3.98532183028475   -2.51203659146614    0.56957521177662
N           4.99719754057682   -1.84858418350813    1.11731577630076
C           5.67723931616854   -1.30247775897237    0.09582920882935
C           5.05878632927636   -1.63192453202014   -1.20200132476965
C           5.81718667796044   -1.01319855389631   -2.29987455116451
O           5.59196122498637   -1.05122433514941   -3.49259622071105
C           6.91217801881250   -0.32733236148013   -1.59311937138249
C           6.78735771489363   -0.52594309787914   -0.13612360751245
N           7.79316719960457    0.10205053619434    0.52061249039048
C           8.51695607121424    0.66238547224661   -0.41927855554007
C           8.02535316485837    0.43409879441017   -1.76059495905062
C           3.97393130191196   -2.41937622651035   -0.91413602313596
C           3.02040393967055   -3.04515870451565   -1.77099457462072
C           3.03345358750888   -2.90172916932914   -3.11235993643952
C           2.10728813230726   -3.49873064981557   -4.04662871397017
C           2.12113692000522   -3.04314236051628   -5.36536885090624
C           1.23456041287039   -3.58140747967178   -6.29223083319459
C           1.03768621508472   -3.28742358756566   -7.67761476992935
C           1.75973682158721   -2.22553848855143   -8.42761861517471
C           2.66076050163139   -2.81669418799456   -9.53390108761079
N           3.74651236696908   -1.89743348833187   -9.79131916657870
C           0.76780428496319   -1.18896175062435   -8.98989052108687
N           1.48443931802589   -0.04828589942207   -9.53983872582326
C           0.02699011855072   -4.13791381616139   -8.15581973833190
C          -0.44131618342783   -4.37836408438378   -9.43369641231925
C          -1.54390758780478   -5.24424100078095   -9.63987548482362
C          -2.10223555476703   -6.02871368133661   -8.47788856658301
C          -1.39065784388403   -5.92834013468421   -7.21341870695142
C          -0.45077157074032   -4.97649766593726   -7.04438450342160
C           0.33790382835153   -4.61443644369891   -5.89600371641031
C           0.33148948545245   -5.07526654252700   -4.58876736682412
C           1.20472020478714   -4.51684493142928   -3.67923351002683
C          -2.88690607598189   -4.79716929952992   -8.89771435896939
C          -4.09890669659442   -4.86095484249189   -9.62268619720345
C          -4.98953545223301   -3.80727701619539   -9.60218049673532
N          -4.73725553534010   -2.66771602911942   -8.90597863561034
C          -5.80135056778010   -1.89959963490620   -9.07514469107874
C          -6.82806959674370   -2.55013440877568   -9.91017751522841
C          -7.98486486533329   -1.65499748783277  -10.09601927379421
O          -9.00479950423526   -1.87083954043252  -10.72552740777404
C          -7.59504607152895   -0.46084665639108   -9.34663770073149
C          -6.27208878520932   -0.63562497448797   -8.73625640592494
N          -5.90331575420244    0.46685980318132   -8.05771132279841
C          -6.91044424587174    1.31375244066797   -8.20768327967167
C          -7.98906849264633    0.80281036871903   -8.99838611352784
C          -6.31166502555970   -3.76472412791948  -10.26795388350966
C          -6.84851758669385   -4.79828789217450  -11.09813124815676
C          -8.12929289318640   -4.80435361859356  -11.50556929653066
C          -8.74149039097434   -5.78968068501052  -12.36469143343961
C          -8.40928089195017   -7.12531647427435  -12.41936085232017
C          -7.45380727340437   -7.90265631120374  -11.59915904665573
F          -7.44579893638728   -7.55371509037029  -10.29976850036482
F          -7.71052070669896   -9.21998583552106  -11.62980806538542
F          -6.16045151828871   -7.78896425122564  -12.00328393100807
S          -9.36337667849286   -8.00743924615626  -13.56459789844424
C         -10.22662078160393   -6.55912504987970  -13.98406995482336
O         -11.18594456254079   -6.57264194372812  -14.91528653833918
C         -11.48121304440391   -7.80951535477995  -15.52171290792358
C          -9.80623244383485   -5.45764894800760  -13.27007031842220
C         -10.33443201984267   -4.11257092142951  -13.41447200543336
C         -11.30161828788913   -3.73733330145979  -14.24425678147653
H           0.74675145580604   -4.81245692328213    2.19998783101373
H           2.40765099642876   -2.80907698063785    7.42447929961213
H           4.18635471815303   -2.67154736039597    7.32713367554187
H           3.41109771021404   -4.28072731609966    7.37154936638953
H           3.92433048751143   -2.69025943433450    3.17619942470438
H           2.23530934013660   -3.72353780518709    0.84255210906943
H           9.39197718916552    1.23372554688967   -0.16155072974528
H           8.47346282191372    0.80411408667229   -2.66155075968547
H           2.26163976614235   -3.64697087583348   -1.29100033273285
H           3.79120655243935   -2.26685040699096   -3.55315502246733
H           2.82209290470416   -2.27268265592643   -5.64956337135095
H           2.43308822016391   -1.70416961739103   -7.74100176259138
H           2.04754326194282   -3.03521465597400  -10.42331483926970
H           3.08985718959610   -3.76089761429494   -9.18068651277203
H           3.36019718698758   -1.01116487867780  -10.10452221775943
H           4.36909302924651   -2.25890603670236  -10.50437885120151
H           0.06479575994258   -0.91165260421823   -8.18632205975207
H           0.18245420590280   -1.63377428519519   -9.79835034982973
H           1.96454215151658    0.44984703621471   -8.79620840810890
H           0.83096612786629    0.59799286254492   -9.96943586840860
H           0.01890228481066   -3.91616946655205  -10.29277908422844
H          -1.71985387324635   -5.61420990882246  -10.64013064628439
H          -2.57939177905300   -6.97510822452946   -8.69794029560933
H          -1.66185331736062   -6.60802872779201   -6.42004879269905
H          -0.34654237775037   -5.85893184890373   -4.28537981173356
H           1.20619213196896   -4.88446029107948   -2.66497734161774
H          -2.77335884252960   -3.91332350106917   -8.28294951953001
H          -4.32317610186083   -5.74315966687378  -10.20424930899672
H          -6.86625555229753    2.28773013881080   -7.75190196789448
H          -8.89301812325258    1.32513913078582   -9.24267919294019
H          -6.15853535885870   -5.56645826656231  -11.41199608768807
H          -8.76873923938374   -3.98786077618606  -11.19968306971309
H         -10.60776547145320   -8.20625438362754  -16.04964899777642
H         -12.28409502454562   -7.61615134532418  -16.23016411435181
H         -11.81029791966951   -8.54329939467134  -14.77878040212967
H          -9.88065092249719   -3.37056592492155  -12.77419390878065
H         -11.79499564363537   -4.42083263883860  -14.91090654098100
H         -11.62760242315915   -2.71197810827615  -14.27213793670343
