113
 SCF done       -204.658548618101          0.000924606861
C         -11.44394547391507    5.38702479460265   -4.10345531243231
O         -12.20201396804614    5.25107856495881   -3.16101253042671
C         -11.56864048129832    6.42526808599565   -5.16800828610844
C         -10.52601971466725    6.28014790780237   -6.08879711085260
C         -10.41438012775615    7.12269762043070   -7.17522897817924
C         -11.37011552079863    8.12269456866189   -7.33159449657165
C         -12.41192402379582    8.26610416098978   -6.41379609339465
C         -12.51896735604749    7.41301015109611   -5.31816056854951
Cl        -13.58042425790323    9.51038379651125   -6.63156485057437
Cl        -11.26024006709961    9.19005676196993   -8.67736950663500
C          -9.66900394603481    5.13552197688479   -5.67799740929092
O          -8.67300021140268    4.73652807532393   -6.25510373328854
C         -10.26567417385357    4.60527119753508   -4.45032606686017
C          -9.70353453830921    3.51018575977267   -3.83283416047749
C         -10.01891969860494    2.80842944858729   -2.65979673497778
C          -9.23384591225529    1.70241268104280   -2.34207822965086
C          -9.36634501400871    0.91500128237684   -1.22015713042127
C         -10.37958903861224    1.19320549097664   -0.20077434247418
C         -11.26605194125888    2.21180180750452   -0.30710594014361
S         -11.34723990280639    3.32097009592794   -1.61347214568118
C         -10.17162196183593    0.21131108645531    0.80006437720747
C          -9.10299360328791   -0.62788533680726    0.44408157462451
C          -8.87710521447378   -1.62731826086566    1.42100014738367
C          -9.74274746195115   -1.52343740116706    2.45978676914042
S         -10.87467104105862   -0.21697768761274    2.30815791465567
C          -8.58749313380021   -0.20716443976452   -0.82175174508626
C          -7.52824719083817   -0.71497398517969   -1.60519336764650
C          -6.59615250325632   -1.64350468310372   -1.26828787500807
C          -5.51448136942145   -2.02367729470682   -2.13590944022879
C          -5.51093263885486   -1.72694931422207   -3.48420017956853
C          -4.39760402970632   -2.04723664841398   -4.27886272242808
C          -4.16286731271122   -1.84259810636597   -5.63254817800644
C          -5.09923759458074   -1.17596348997783   -6.58841685855625
C          -4.42840027163016   -0.10759652199716   -7.47235502082081
N          -3.29407073277659    0.54210728526169   -6.81492417392209
C          -5.80825428967851   -2.22249534389015   -7.46864066817620
N          -6.72173707607420   -3.00050966403173   -6.65378744822879
C          -2.84483625427930   -2.35518824183898   -5.90780035747063
C          -2.13379546043248   -2.42959688720827   -7.04799383959477
C          -0.72001998482552   -2.88874350237658   -7.06129472896509
C          -0.22549549203238   -3.42116532746130   -5.74797852068023
C          -0.97098735349387   -3.39923994490378   -4.62941207592727
C          -2.28223004602989   -2.86405894593317   -4.64712185082916
C          -3.24143246218665   -2.69447547871171   -3.67134057734542
C          -3.28547178505383   -3.02306953688213   -2.29401085784989
C          -4.38492408835204   -2.70763641724429   -1.56641505190744
C           0.19331367936430   -1.75640773865085   -7.46986267133539
C          -0.18367451679501   -0.47379220218592   -7.51218550036196
C           0.66362028493071    0.62828432713281   -7.88060897233157
C           0.14793266044764    1.88876579104131   -8.04899117075030
C           0.88330268422802    3.02543163099600   -8.39544015013287
C           2.34175395942406    2.96111818030927   -8.49221856842536
C           3.06303025772702    1.81958912013605   -8.39035065919028
S           2.36879600076427    0.27565402174389   -8.11255870783621
C           2.77697634285043    4.29934443922170   -8.69558890303948
C           1.67503426957277    5.14951343083995   -8.72815959449330
C           2.04710055257614    6.49627547073033   -8.93198843074847
C           3.39527743599504    6.62997906201228   -9.04199947500947
S           4.26332678631597    5.13901265768923   -8.91049925845626
C           0.47409162401320    4.36729494420531   -8.57299006054170
C          -0.81179839982394    4.94072027653978   -8.63131449667853
C          -1.97902008465969    4.30220459130227   -8.87795118266748
Cl         -3.48587404534061    5.16370862242570   -8.78590987834203
C          -4.27573607809491    4.35931839555798   -7.43936777640675
C          -3.53940321423402    4.09394390027062   -6.29962343501177
C          -4.12988847280987    3.31031362608602   -5.32861554336488
C          -5.44042243388847    2.78190619297139   -5.51217222945729
C          -6.17191756174507    3.08143272534879   -6.66214828617095
C          -5.58833304755242    3.87096598762340   -7.62768120081629
Cl         -6.43594675410157    4.28805733585706   -9.06781466696169
C          -5.79104135599528    1.92853677418231   -4.39417780239377
O          -6.81663186497840    1.26969599457591   -4.24852091808474
C          -4.63213574198606    1.97516886599456   -3.46204197270494
C          -4.53718127310841    1.37141507351486   -2.27837657020725
C          -3.56909010354972    2.83650565363353   -4.06078037972337
O          -2.47119726126444    3.07578325788873   -3.59845383099596
H          -9.61262097815222    7.01177721724073   -7.88761870392514
H         -13.32258925911496    7.52454083279629   -4.60802955064794
H          -8.83975932234713    3.11598652674695   -4.36273164333038
H          -8.45002462903782    1.46768665222454   -3.04926183537115
H         -12.01105836681849    2.40023262054864    0.45104352087893
H          -8.12300095601694   -2.39065149908182    1.36406796878627
H          -9.79897735840967   -2.14371817930139    3.33316317751808
H          -7.44489795360211   -0.25499228432226   -2.57863857940774
H          -6.59902209263296   -2.08035859108419   -0.27906053923213
H          -6.36335171420328   -1.25915889953118   -3.94913753248287
H          -5.87717484058504   -0.68576657968387   -5.99555667247818
H          -5.20204606844752    0.61653513802150   -7.76435844977144
H          -4.04952066785011   -0.56314748221132   -8.39523203606338
H          -3.41324297821730    0.51265262138100   -5.80742945217562
H          -3.24793106781902    1.51924312628161   -7.08136903996635
H          -5.04400645044720   -2.83328963968156   -7.98122802373768
H          -6.40177433888723   -1.70935911417947   -8.23203593052998
H          -6.21505086774898   -3.45363407604136   -5.89991669979364
H          -7.17413412056919   -3.71897663305800   -7.20763644824876
H          -2.53680652932824   -2.10946620863426   -7.99669801962846
H          -0.60951002564444   -3.67907870261218   -7.82097946575801
H           0.78230741274783   -3.80825796509802   -5.74352050547870
H          -0.57768297106340   -3.78766235335968   -3.70054118017687
H          -2.44316292306798   -3.52468082988584   -1.83938913321054
H          -4.42617870753456   -2.95351196436653   -0.51419856934821
H           1.20994861121791   -2.04568197365134   -7.70263677608907
H          -1.20421829388419   -0.19993236907201   -7.26692937026910
H          -0.91042661351614    1.99174734456823   -7.85869011661084
H           4.13699703504252    1.80318856877522   -8.48297248396331
H           1.36621595004919    7.32631683219568   -8.99198686630149
H           3.95472325844194    7.53189957981669   -9.19626871179030
H          -0.84063314764860    6.01871184208361   -8.52521931321471
H          -2.10552429083234    3.25585221035017   -9.07844624860703
H          -2.53211377747074    4.46128503337218   -6.17232864507475
H          -7.17893146217910    2.71666020198468   -6.78352272703318
H          -5.34164798932065    0.77591017861230   -1.88137868187039
H          -3.64158011223288    1.47227826890937   -1.68655604196388
