130
 SCF done       -226.441684468188          0.000918535828
C          -8.43489294000763    6.42410565109203   13.60288219266547
C          -8.38347818062140    7.69950435261343   14.10228901999782
C          -8.09557610295718    8.00918364747970   15.44920138597375
N          -7.85966470643436    8.32743831685846   16.52624809164465
C          -8.66481440978011    8.87399046486576   13.37763668555908
N          -8.90434188838772    9.87378666790839   12.86375075500271
C          -8.28333644370687    5.21252449981166   14.39334501094313
C          -8.64706046478804    4.10576925594249   13.58848591190898
C          -8.63178874407787    2.81281023077762   14.05439830689699
C          -8.22661958684787    2.60108282344124   15.37513103987468
C          -7.85315827637977    3.71285710347747   16.16975192516252
C          -7.87702223819289    5.02065257106825   15.70083322491821
S          -7.37917152526101    3.21549285150748   17.76287200765462
C          -7.68097683917269    1.56052822365250   17.36226353110737
C          -8.11582043230849    1.37912052328658   16.09600203208115
C          -9.01926439098109    4.56973169627421   12.24144838745936
O          -9.44677211864258    3.86414534280910   11.35292504716092
C          -8.75033509047936    6.03432368589543   12.23128663297200
C          -8.64543310956295    6.89594880918449   11.17767478386224
C          -8.88144370967527    6.74161325117341    9.78401617750831
C          -9.42044511555655    5.60198971011236    9.07524165045216
C          -9.42846154181918    5.83731885620307    7.74153354822434
C          -9.92430279016378    5.02156892956657    6.72137453312243
N         -10.34813857522101    4.39218520560204    5.85777106894276
C          -8.88460064793573    7.20676964786511    7.47166408687735
C          -8.57238492625756    7.72240106778758    8.84697737649886
C          -7.96317540614087    8.99782576116502    8.88877681263989
C          -7.31215644506175    9.47369916132660    7.64422432643323
C          -6.83822953395880   10.80431236621879    7.90964544146848
C          -7.15510254846359   11.10582754021584    9.20689609230302
C          -7.85224655774285    9.99624389094105    9.81672095528283
C          -6.85514194504450   12.30872453903840    9.86913154470688
N          -6.59341530586398   13.28775104001724   10.40544619867629
C          -7.13825372870242    8.68684974110501    6.56786296179041
C          -7.60908196928622    7.26735009517651    6.59471086215527
C          -7.82982089758137    6.64562691749136    5.24149736355817
C          -8.88857071744508    7.01755082212294    4.45989234033339
C          -9.16664030394351    6.31134107100587    3.26898161986987
C         -10.23874039326368    6.37553455319410    2.38516412638146
C         -11.47250447132511    7.20261285081487    2.47426655100898
C         -12.26525370718693    6.85620665937688    3.75443451388783
N         -12.65913015912580    5.46316043921129    3.71205818294487
C         -11.18253347917573    8.71136362671708    2.39960077865490
N         -12.42851139994845    9.45553523481860    2.40010012807230
C         -10.01280858698371    5.35907210634211    1.38442348749209
C         -10.74880739961317    4.97797600199860    0.32185888286719
C         -10.29015531275261    3.89803606367220   -0.58825159459031
C          -9.05906094961516    3.18126094041664   -0.14388102688034
C          -8.32955473489961    3.57770021261191    0.92097402627513
C          -8.76085078313401    4.66670293865935    1.70580002669377
C          -8.25894064508793    5.25322361650419    2.86046506066532
C          -7.13405034495264    4.94844842391593    3.64847337960247
C          -6.94415261715442    5.61732493335812    4.81978493342098
C          -9.94813128006453    4.51105257668041   -1.93200577004189
C         -10.53546879476430    4.17483371513233   -3.08041945287984
C         -10.12638200890788    4.68275017825081   -4.36716382374307
C          -8.86245598785563    5.01682625950319   -4.74326142423402
C          -8.86711428184132    5.32836910549866   -6.15922171652752
C          -7.73961713098013    5.74476443024068   -6.87599037623653
N          -6.80500658296207    6.08411915844848   -7.45098107793761
C         -10.13275149323128    5.14656624758564   -6.65221127274198
C         -10.98690673049379    4.78012411907878   -5.55998700296262
C         -12.36010539238188    4.69860141893536   -5.59030616553645
C         -13.21997013262216    4.60132234609565   -6.78464785457934
C         -14.51986336910907    4.74252336340555   -6.36991581487812
C         -14.52734321831713    4.93082900481283   -4.94162073958375
C         -13.23642096612119    4.87039195903281   -4.47210224209284
C         -15.67029624841793    5.15028312564969   -4.16175476751559
N         -16.59464632762694    5.33902764996965   -3.50745359611029
C         -12.78881277694896    4.26351702100191   -8.09714926506124
C         -13.50604354124500    4.52964940152014   -9.22081636750607
C         -13.07411354962209    4.12328887441602  -10.50038534876998
C         -13.70120824055039    4.29010985574924  -11.70026704846660
C         -15.01767415620192    4.76626391389320  -12.06475629816350
C         -16.17456872155226    4.66291702342398  -11.33479293029007
C         -17.43510201702295    5.09456097187739  -11.79866998145067
N         -18.48358054867075    5.44073413768388  -12.11304224985408
C         -16.29254023377113    4.03046405367548  -10.08073988542175
N         -16.47542443300172    3.50620929448191   -9.07528638381270
C         -14.94772994879098    5.19473299296612  -13.45985097096051
C         -13.70540242482622    4.77849564577207  -14.00432146095035
C         -12.90960074716483    4.12572414285191  -12.94979664796971
O         -11.82093366021791    3.60558029598458  -13.05075233733935
C         -13.35749200849252    5.01228801147975  -15.31265381682392
C         -14.27027653425843    5.69931535767291  -16.11875813360868
C         -15.50036945948741    6.12405042734765  -15.56220646089382
C         -15.85768340409560    5.87982425823189  -14.24107251839715
S         -16.46223525961214    6.96801864709714  -16.73453077359947
C         -15.23728896416402    6.74578637765433  -17.93560274199009
C         -14.15493992130749    6.07344270986199  -17.48746612561608
H          -8.92236276892426    1.99200126575067   13.41713359670385
H          -7.57970113952096    5.83211221068449   16.34367189663096
H          -7.51092770518418    0.81291272970870   18.11251165687026
H          -8.35369166643773    0.42024246514590   15.67239697279029
H          -8.27660313418608    7.88364630497446   11.42216760193369
H          -9.76233763879737    4.70576730886052    9.55681142318643
H          -9.65019980713367    7.83205009751626    6.99867025350160
H          -6.30520147627623   11.42470034594221    7.21458637588121
H          -8.25082267341917   10.03333743262690   10.81458168075045
H          -6.63876271274543    9.04138617787328    5.67775706033415
H          -6.83541372180622    6.68328310139128    7.11587212236819
H          -9.53752873846609    7.82367625499988    4.76770128725665
H         -12.12240336518695    6.94676678042687    1.63225543225960
H         -13.16164058005680    7.47914832553849    3.77040142397498
H         -11.65473911037403    7.10664579005462    4.63510797024834
H         -11.85709612909530    4.86432671101993    3.88583074272911
H         -13.35141801557435    5.26372830476650    4.42414786694817
H         -10.55883318496833    8.89772607569440    1.50733897318318
H         -10.61169564270327    9.03066121025086    3.27431678207857
H         -12.98350464876513    9.21754345442117    1.58470050256979
H         -12.24925741400998   10.45280899443351    2.37401742367244
H         -11.68202961627123    5.46001776340955    0.06651795584035
H         -11.10917997761046    3.18448079818006   -0.74220461753138
H          -8.74768837889224    2.35140698801885   -0.75942060248782
H          -7.42655177084374    3.05282371618174    1.19674080123518
H          -6.45079674545825    4.17333713928672    3.33602360804773
H          -6.10498609251874    5.36885908677213    5.45413059946965
H          -9.15160212934544    5.24027991127548   -1.90741195892446
H         -11.35045736608939    3.46193304878687   -3.08311858587810
H          -7.97940246358250    5.01451455570150   -4.13244659857303
H         -10.45294681674474    5.36210723941807   -7.65297319055545
H         -15.40275414227072    4.65270148914667   -6.97509248624557
H         -12.92933826256453    5.04334490337181   -3.45864901607455
H         -11.85144820018431    3.73032052141866   -8.19123722782190
H         -14.41434900829912    5.10536278773811   -9.13481781438150
H         -12.08397978421651    3.68198235699490  -10.56755733475534
H         -12.40789733419816    4.67783712590757  -15.70066631972462
H         -16.80267514371020    6.23097667100355  -13.86092997146436
H         -15.40677808526763    7.14021928899094  -18.91864839158869
H         -13.29589177347356    5.84347025754444  -18.09139944116015
