87
 SCF done       -182.600844099141          0.000935775321
C          -2.77901458499165   -0.28909012255603    3.93346907652738
C          -2.04803420165771   -1.36861943974664    3.51541363101916
C          -1.32803387067444   -2.21963392925713    4.38101049587285
N          -0.71671439507333   -2.94161819882854    5.03071151174765
C          -1.88293340337216   -1.74818615722019    2.16702072854796
N          -1.71187672338037   -2.10199475030223    1.08843371106603
C          -2.95168716932200    0.15556179933635    5.30798120735047
C          -3.62166370641501    1.40802216574364    5.31370329678626
C          -3.94142256446231    2.07432225929835    6.47214033073466
C          -3.60403278992701    1.46515718963646    7.68331452908578
C          -2.93504166006001    0.21558069876780    7.67115133123003
C          -2.59743501175143   -0.45050299091156    6.50008510942165
S          -2.62265855761601   -0.34471521187686    9.28371708787408
C          -3.37893986977977    1.06371159881142    9.94621226633704
C          -3.84321051703145    1.92003021817041    9.01032050516592
C          -3.89278293480585    1.82035021565175    3.93047234344489
O          -4.20019910121745    2.91520541356390    3.52199194205211
C          -3.53378099386081    0.62694886038474    3.09089623243756
C          -3.88758409778257    0.48308340628048    1.79170338215615
C          -4.88566132666562    1.29120241968105    1.16950315845776
C          -4.94886297627682    1.68810039083895   -0.24580632894578
N          -6.00190515166206    2.38087537652571   -0.56059925711041
C          -6.73608914659697    2.47949303098580    0.58706202214974
C          -6.04272935346473    1.80281777533555    1.70108013294525
C          -6.87764491126315    1.80035124231971    2.87369710343286
S          -6.68051947111756    0.88571242997728    4.22438809323478
C          -8.01951134803401    2.59224502695286    2.49677848214695
C          -7.92372688473861    2.95943109273203    1.06733677570456
N          -9.03118206744162    3.65215365083051    0.67667388438684
C          -9.78724619574564    3.73225005829472    1.72895912064681
C          -9.22320056448451    3.09767664073327    2.92844567083731
C          -9.81664161945850    3.10275414599442    4.21885671082864
C          -9.26072618988043    3.02752085493545    5.49051834785003
C         -10.31818565089256    3.12658353582575    6.43900031904252
C         -11.50123400636767    3.28057772548711    5.72876866101248
O         -12.74639809238816    3.49240105600704    6.09807977518922
N         -11.17481773342856    3.23690137086158    4.40278625224561
C          -9.73522028867030    3.10224005193731    7.73115485306105
O          -8.38183197777797    3.02535457891684    7.58337280771523
C          -8.02128450388246    2.99242407348940    6.24124783464684
O          -6.86835037004342    2.95899449742112    5.91165919553621
C         -10.33091217253148    3.19324342550085    8.96259692251962
C          -9.67162100808243    3.39125217338063   10.25310456863613
N         -10.47483193395064    3.61054020214138   11.24792037443688
C         -11.74018342947917    3.53714172275040   10.75304406694783
C         -11.71052944951845    3.22630042209906    9.28861913493361
C         -12.99131867115478    3.14419052652767    8.79441842274805
S         -13.56307285762462    2.52755142139425    7.28869502666464
C         -13.85924714572849    3.50007482619087    9.91259725234573
C         -13.04337869496142    3.65716209818848   11.12375898612317
N         -13.84227734287318    3.98102941325070   12.19851491288874
C         -15.03257288364429    4.09442548088408   11.73463080775741
C         -15.13121201817166    3.85762991043043   10.26202493024397
C         -16.33630210738225    3.98065762151143    9.52155545694474
C         -16.50936440524745    4.32727356708525    8.22280380649772
C         -15.60243504506173    4.82728058742854    7.20615249574631
C         -14.51618078816795    5.63809521714676    7.39910972672214
C         -13.70217378641863    6.12093189838904    6.35337532507194
N         -12.98865680201663    6.51130416808946    5.54322787369994
C         -14.09022237563832    6.10218727562074    8.65910043792544
N         -13.71106701543421    6.53058995648525    9.65402697565046
C         -16.19035883831560    4.49266395434549    5.91590487358577
C         -17.52300807453178    4.04743479976282    6.11691011204226
C         -17.81596687085297    4.02454317718441    7.55981117601672
O         -18.85635536333476    3.76209618686601    8.11323121947568
C         -18.34318901140423    3.68884814329380    5.07337376470335
C         -17.82009647003046    3.75613299494017    3.77871108065192
C         -16.48134340226333    4.18011295155020    3.59248660396663
C         -15.65616828966659    4.55728184347361    4.64446509971112
S         -16.04541388677565    4.16213478070008    1.91283373889144
C         -17.62669814905195    3.60967833877857    1.48140064453939
C         -18.44757907994195    3.44030895896124    2.54021958719550
H          -4.46747212396726    3.01415098447054    6.43765737675019
H          -2.09311348968562   -1.40187971720128    6.54108311562843
H          -3.42862162262325    1.16278846092113   11.01331119310512
H          -4.34313707886994    2.84522239884002    9.23202344581250
H          -3.46079045878587   -0.30340103665438    1.18217711181809
H          -4.19433079336398    1.46509338231201   -0.98034203858182
H         -10.72046917799087    4.26719677021185    1.68556740726698
H         -11.84666787841248    3.35388099662418    3.65905159442843
H          -8.60477322639140    3.37511784648626   10.39104365986794
H         -15.86712649020781    4.34512289086959   12.36390566432482
H         -17.24830524142181    3.73363242482692   10.05919334175443
H         -19.35638700803336    3.36385316882826    5.25136646932629
H         -14.64257354268907    4.87307533152535    4.46340775575756
H         -17.84477840962519    3.44389931289146    0.44439101727034
H         -19.46543010516478    3.10364468964357    2.46378514550864
