98
 SCF done       -199.365867944719          0.000878135127
C           8.01870056722796   -5.69530091183914    3.03867377607306
C           7.97256261841103   -6.92798909893355    3.63022216417457
F           7.22992101899954   -7.10230362394069    4.73789477837468
C           8.67482255026980   -8.03013951693623    3.12591019849850
C           9.43663490158824   -7.87010821393868    2.00116280928938
C           9.52046733520398   -6.62181193560619    1.35264839536978
C           8.79603881024457   -5.51354760138210    1.87951460894133
C           8.85684837567813   -4.25119242226988    1.24077002566715
C           9.62201277141937   -4.10590050630268    0.11680283450675
C          10.36018418850460   -5.21252912557849   -0.39277091135460
C          10.31281578170504   -6.44245650256711    0.19551045548129
C          11.12909834241692   -4.77120170945664   -1.56771031492219
O          11.83439220182492   -5.43104282324561   -2.29385533003859
C          10.89124346670388   -3.29333353067195   -1.66955913664906
C           9.86411052383805   -2.95146299211489   -0.74576321998620
C           9.13355946255979   -1.77239775110236   -0.71494628360411
C           9.12841226339533   -0.85165639028759   -1.78266541104352
N           9.07211300527116   -0.08529553616165   -2.63471645428265
C           8.06534487890528   -1.52668914813485    0.17887825964021
N           7.19159670439252   -1.25913383260625    0.87202504220369
C          11.69513751439687   -2.59082362844866   -2.53861525478523
C          12.01201361799070   -1.23652307162354   -2.68004190411565
C          12.70893831430687   -0.75621639244825   -3.86219743676348
N          12.93536405506059    0.53538902464764   -3.85685492419903
C          12.44004417209693    0.98922119830436   -2.67908895767726
C          11.85553272554316   -0.06964719004161   -1.89837154172183
C          11.44316504815748    0.45423465500484   -0.62901569270981
S          10.83569415915019   -0.34190410933995    0.68705151213827
C          11.72188961764478    1.87124408767863   -0.69098384450302
C          12.34208033042475    2.16921825579548   -1.92729598022045
N          12.73107545985323    3.47680383230395   -1.90840022081559
C          12.36554843333425    4.00411681518469   -0.69439207498020
C          11.75771578180569    3.03762560781318    0.09403065390472
C          11.39514437237085    3.20323175760780    1.49337562182326
C          10.17363887881386    3.12552837123346    2.09346641474466
O          10.27029828202684    3.39604647029433    3.40463193961098
C          11.54714498588469    3.66268844336688    3.67383006702281
C          12.31393261999398    3.55017772461304    2.54423903312205
C          13.77870732517076    3.67687605587584    2.41989886744521
O          14.44827500863328    4.48799050819405    3.00809586831347
C          14.29830010162329    2.66642080168319    1.46313550390142
C          14.05126497492646    1.31578282753796    1.51038027693786
C          14.48924897095520    0.63610443442828    0.37186018104853
C          15.00282948184967    1.48424858129081   -0.58920946709162
S          15.12275860742333    3.11372193649472    0.01577767199691
C          15.28428884588508    1.15056688510241   -1.94213458437198
C          15.79919984305908   -0.15354279365543   -2.39076035726926
N          15.99798727987760   -0.23343748238689   -3.66913748967575
C          15.62965127948563    0.97105510058684   -4.18468587171763
C          15.13865147845666    1.86795456383069   -3.11152914191607
C          14.67858619097040    3.08279606172067   -3.71455018745984
S          13.67737575910332    4.32017118389147   -3.04001916993888
C          15.02673978712364    3.01288783096731   -5.07279265834497
C          15.58547669848009    1.66056587176715   -5.36342798809518
N          15.81812727661751    1.51357576834211   -6.68622440509935
C          15.46136116018629    2.63985163433902   -7.24086653671317
C          14.98044715140758    3.65780611288046   -6.31307799672245
C          14.58332394345460    4.94206106328938   -6.72368262835495
C          14.41941695596512    6.08792677192271   -5.99448085585279
C          13.60575955622962    7.20046525977088   -6.56598151108120
O          13.23757364313330    7.30743678333844   -7.71214225459642
C          13.31729149103823    8.09146631873214   -5.42648830738136
C          12.52402795062914    9.20106989144286   -5.38130780564065
C          12.37376245302083    9.89147267019431   -4.15726913974830
C          13.04586785989676    9.40908060111300   -2.99627368124647
C          12.88463144362899   10.09627823443204   -1.77795061269853
C          12.09428292083182   11.21174936564368   -1.73596679558270
C          11.42894111170864   11.70411292259414   -2.86693764133631
C          11.57189843716575   11.04664869043517   -4.05738836101118
F          11.94040105898578   11.86938524994985   -0.57403606633822
C          13.86912949983923    8.26089085767191   -3.07521012101948
C          14.00985637852157    7.61801965312582   -4.27448769573090
C          14.80891568453305    6.45711134289295   -4.66004691206777
C          15.87510429930067    5.95634097302608   -3.94649966449724
C          16.81754863676311    5.05370648280229   -4.47327358737611
N          17.63585900684246    4.35128615322590   -4.86760603233027
C          16.20412287937426    6.35989274742733   -2.63628616469946
N          16.48786907362197    6.61306584576636   -1.55352890418085
H           7.46250432305800   -4.86940807459048    3.45399832991342
H           8.60028036829650   -8.97831144259946    3.63421732428367
H           9.98738744520703   -8.70458980422566    1.59368113469541
H           8.30420851726446   -3.42943883463045    1.66754576384961
H          10.87424082255190   -7.26946873709540   -0.21321658142281
H          12.24231072872833   -3.24233957728497   -3.21820775803410
H          13.00410181885270   -1.35728038752859   -4.70188391786056
H          12.58199751033636    5.02849615125010   -0.46394574897944
H           9.20382911173886    2.89810405117536    1.69795104172458
H          11.81965462898500    3.88329705812638    4.68694821974595
H          13.55583698277629    0.83963096291918    2.33757085468657
H          14.35468493466177   -0.41874185574174    0.21357722987125
H          16.02060791999845   -0.97994243031998   -1.73925473464011
H          15.54542113619689    2.77625410329522   -8.30526113744587
H          14.31837397206023    5.03695588676464   -7.77319559842482
H          12.01740691452250    9.55008701106922   -6.26848070517663
H          13.38638074643181    9.74949404079227   -0.88801850707294
H          10.82012101048814   12.58931258837101   -2.77373413227811
H          11.06913566860409   11.40705792350636   -4.94205715921809
H          14.36550579716589    7.91751892562991   -2.18147538632241
