128
 SCF done       -232.662430814381          0.000291277857
C         -14.60681671737441   -1.41930076707470    2.76949748589680
C         -15.54465293303268   -2.44150425565522    2.68122886853988
C         -15.15380748619936   -3.74357849890589    2.42490199174410
C         -13.81289159427444   -4.06697724733590    2.25079655216926
C         -12.87552387537660   -3.05538858643797    2.31988142468056
C         -13.27401590856057   -1.72864920707819    2.58050487672580
C         -12.07097519564792   -0.89666403212717    2.61092936496280
C         -12.03867509114468    0.46329584266979    2.88554736164770
C         -13.18001991964164    1.24696838917148    3.11404607567438
N         -14.06561075605089    1.95450155382856    3.31228806509497
C         -10.87555420080841    1.23253492987094    3.03749520855732
N          -9.96646763053277    1.92460411023313    3.18780749828491
C         -10.97378975349388   -1.75011230743022    2.33943650648195
C         -11.40908228119658   -3.08751648552323    2.23968549900706
C         -10.67129876354027   -4.26172506672985    2.14078356689904
C          -9.33967037577634   -4.43363204697120    2.53304915053565
N          -8.27595682612018   -4.68472152586359    2.89639328089937
C         -11.20869749585884   -5.48161068724169    1.70266478767137
N         -11.55293526910021   -6.49509608331738    1.27893048619419
C          -9.59251292606170   -1.20699659983563    2.17050517552566
C          -8.56605183723892   -1.94918811004793    1.38510581940386
C          -7.42529256248192   -2.10740120761529    2.21223679563579
C          -7.80155477278738   -1.63973015722678    3.49204655341139
O          -8.99398235289198   -1.09113834075551    3.47878187234005
C          -7.19670648294220   -1.80619322804201    4.77490779291566
C          -5.86086530801612   -1.93532371781099    5.07511218898033
S          -5.59120354806322   -2.10269355255071    6.74707859964973
C          -7.28608648255080   -2.02561382251048    7.07593396274434
C          -8.01951709371171   -1.85250320796377    5.95333755905606
C          -9.52144233938835   -1.89455661296997    5.86373350843730
O         -10.07137645977434   -2.94170919543591    5.60576455409644
C         -10.24080225923630   -0.62815965249626    6.07921113732525
C         -11.63546172458674   -0.64245636712837    6.00683879780412
C         -12.35305388675728    0.52595822208106    6.16538191902145
C         -11.68523202961810    1.72036900636415    6.38993627378900
C         -10.30067904021926    1.74296966587031    6.46230046269105
C          -9.57709751254751    0.57638811938722    6.30939005646722
C          -6.30336435920832   -2.78428424560227    1.71703204879654
C          -6.36523779284868   -3.31140808575493    0.45574210096433
C          -7.51194080599921   -3.18913173733113   -0.36268993735873
C          -8.61633009041521   -2.45966881051047    0.11853137474022
C          -7.56237189564423   -3.84285629300590   -1.63254937342457
N          -8.50002539756116   -3.52843830578791   -2.59612645748552
C          -8.33365429773555   -4.36209548167966   -3.65222077213839
C          -8.81559578396667   -4.68839758888602   -4.91747588789247
C          -8.06054051544442   -5.78199375211522   -5.34644355015763
N          -7.12407147712165   -6.10405706393626   -4.38744683128102
C          -7.27190379018639   -5.24954460788796   -3.34006772617902
C          -6.77824324431505   -4.91319570830790   -2.08570034627728
C          -8.19117271424912   -6.47098267180806   -6.58634292699571
C          -7.56943538160556   -7.61899528631787   -6.91830864089947
C          -7.68183979753707   -8.25932539900486   -8.20942649160529
C          -7.94128457887171   -7.53745745074653   -9.38876190115997
C          -7.84240519227832   -6.05583075045970   -9.45971368678919
O          -8.67226698022487   -5.36027082706746  -10.00294098739199
C          -6.60547300601993   -5.48182104064466   -8.87756533227340
C          -6.55831366020429   -4.19144445865918   -8.43105243187482
S          -5.03423233856843   -3.76765536575931   -7.78818688504397
C          -4.42381013301119   -5.33998962395483   -8.12711375784340
C          -5.35374386600417   -6.15457860444401   -8.69831619189564
C          -5.04731894206816   -7.52391588840664   -9.19836710634434
O          -5.20420527509461   -7.80410565607865  -10.36885316735807
C          -4.55383131666641   -8.51519159464994   -8.21332957318455
C          -4.31884318455369   -9.81421677791448   -8.66888743732601
C          -3.92853617383664  -10.80816607726282   -7.79411691571148
C          -3.75917746577048  -10.51428013584487   -6.44972728443104
C          -3.97614626969751   -9.22525838734187   -5.98871677413762
C          -4.37745527446901   -8.22910046834685   -6.86034419177687
C          -8.17604758674201   -8.21460251081400  -10.58031658378760
C          -8.09141409362914   -9.58819401538412  -10.63887684572655
C          -7.74264356256660  -10.31672589343292   -9.49621319902463
C          -7.53327093604719   -9.64056759146955   -8.29922874273404
C          -7.51770746935060  -11.74640758823215   -9.54826392379124
C          -8.22466747660915  -12.66553319825218  -10.24366432811683
C          -7.76048041167313  -14.02152778478564  -10.55363545166932
C          -6.74387442048632  -14.70289911513096   -9.94435056443978
C          -5.95735947373585  -14.22004913463273   -8.87712344626314
N          -5.26904393522263  -13.89681252023173   -8.01633084631311
C          -6.35095187151565  -16.01493390326210  -10.29043516877961
N          -5.98235948147805  -17.07773456325748  -10.51609212106764
C          -8.57879310480746  -14.49962370453442  -11.65592471858104
C          -9.59919174735192  -13.55524402554075  -11.91916362660965
C         -10.50291269662508  -13.76159179415981  -12.94959011482502
C         -10.38858272539236  -14.91487018213869  -13.70980266896946
C          -9.39565008235306  -15.84917732368368  -13.44552867095997
C          -8.48303998829628  -15.65309899023614  -12.42120895446762
C          -9.49891379572535  -12.48222474641348  -10.94515594341150
C         -10.50139748643355  -11.62595730524986  -10.58870293897650
C         -11.73299195368268  -11.53513652715423  -11.27350027932856
N         -12.74262650389129  -11.41493646203345  -11.80442889427698
C         -10.48164438968487  -10.81208380739072   -9.43502638826394
N         -10.55882983671432  -10.19644711346308   -8.47012661136310
H         -14.92462488622005   -0.41134575057228    2.98129282822743
H         -16.59075995199310   -2.21239775173873    2.81905381610469
H         -15.89677364256388   -4.52459694700308    2.36297394877885
H         -13.52590369945279   -5.08898451394788    2.06421210057473
H          -9.67241130306093   -0.17790663115423    1.78547408479020
H          -5.03000803067356   -1.89349604657753    4.40044637112571
H          -7.63452205153362   -2.12235523546167    8.08472395019403
H         -12.13260544636858   -1.58330856723572    5.81837201619051
H         -13.43082419437634    0.51310511796283    6.10187487879616
H         -12.24629259402656    2.63625357890571    6.49754926793873
H          -9.78555713750253    2.67684316522267    6.62721925625237
H          -8.49823476617942    0.59879639576016    6.35488892579543
H          -5.42440394551950   -2.91221481504881    2.32572437394853
H          -5.51506018204355   -3.84691836670773    0.06579636076507
H          -9.51968239075132   -2.36093978427115   -0.46410936166039
H          -9.15925567485396   -2.77247875062473   -2.53616268855361
H          -9.61278501886119   -4.23129727330501   -5.46769544185928
H          -6.47984763804460   -6.87249598559421   -4.44898127871973
H          -5.99688369262713   -5.39653755284498   -1.53585505627479
H          -8.87467703305318   -6.01338015417411   -7.28745942751591
H          -6.98923940720521   -8.16057361807455   -6.18296688256921
H          -7.36303206574089   -3.48342061388498   -8.43769131109675
H          -3.39345103406346   -5.56047264087929   -7.92657140897141
H          -4.45917853091582  -10.01704881662653   -9.72052717934460
H          -3.76539793189067  -11.81488711938986   -8.14750451239371
H          -3.46124643484295  -11.29160824455037   -5.76292073735088
H          -3.83595078239055   -8.99894854303850   -4.94128770225039
H          -4.55575674965257   -7.23005760148202   -6.49104456780118
H          -8.38395244565432   -7.64042083523613  -11.47023818033511
H          -8.23087951511603  -10.09704303848122  -11.58141776658804
H          -7.29208962625173  -10.20570944199606   -7.41037210107846
H          -6.63937429694507  -12.07665358433369   -9.00953899075834
H         -11.27318602560221  -13.04001377994086  -13.16827281259856
H         -11.08207791101649  -15.08660633821917  -14.51854793965218
H          -9.32854515606477  -16.74148652069757  -14.04872010041312
H          -7.71510208350571  -16.38566472064569  -12.23487973956977
