108
 SCF done       -203.522436792469          0.002767734092
C           2.94893058200819   -5.89330039014816   -7.57398575021381
C           3.91841943309459   -4.94720907243707   -7.27300941802462
C           5.22849837681385   -4.96114067339037   -7.77931829439512
N           6.30020918536993   -4.90123832816338   -8.19026039230199
C           3.68261776352408   -3.90216712160064   -6.37659373414142
N           3.44568679018117   -3.01134848563184   -5.68300855684445
C           3.22098799628547   -7.16116816178597   -8.26063436915574
C           2.13184136306951   -8.02555624747871   -8.05594193925072
C           2.11932187421322   -9.30798768881513   -8.55776423061207
C           3.21767909574159   -9.73670828325139   -9.29759602645060
C           4.29842047324266   -8.88052736202563   -9.51400881100727
C           4.31261023316350   -7.58895088159397   -8.99276816041703
Cl          5.64419611729837   -9.41646680182783  -10.44007233191776
Cl          3.23651243344289  -11.32877394178175   -9.94619377001969
C           1.09612217021668   -7.31466717854177   -7.26560540459432
O           0.03963721821519   -7.75752621472594   -6.86749729415036
C           1.60928600492318   -5.94169544384576   -7.09486982279287
C           0.75109469222243   -4.98722703458091   -6.55771027795910
C           0.73923575111206   -3.61690198587605   -6.69398674076788
C          -0.08564946915542   -2.67028207265812   -6.02857107870423
C           0.23574742675535   -1.32423417914791   -6.45668660385004
C           1.15598309365575   -1.25992825104413   -7.45647710279750
S           1.74637521784556   -2.81693904071644   -7.91339824007268
O           0.80470135004606   -3.19996086066576   -9.23710771483500
O          -0.24089598430968   -0.21123053161802   -5.89418111366504
C          -0.99975096263380   -3.01476347302912   -5.02801965418286
C          -2.02583101806951   -2.23162643761545   -4.53626961947843
C          -2.84295066629885   -2.52023267765617   -3.42358434844622
C          -3.83567666349220   -1.55848379450402   -3.08386456299724
C          -4.59159291085824   -1.71128310808016   -1.95661413487386
C          -5.61578972048656   -0.88009422690166   -1.33410283073582
C          -6.24483369138666    0.37194073956483   -1.86742380399873
C          -5.33235574870788    1.61340413116694   -1.80898353533474
N          -4.11040208771612    1.44488082267514   -2.57784087920577
C          -6.78689933402861    0.14616129149390   -3.28549467951461
N          -7.72910791941483   -0.97906098828197   -3.26485933237139
C          -5.99718812514944   -1.51207217769086   -0.18186694589165
C          -6.99029519852159   -1.11602765513874    0.81645430694159
C          -7.21187081300139   -2.06377427620847    1.96510027222914
C          -6.38877755136871   -3.27211406223343    2.03803951919303
C          -5.49137873270501   -3.60327134219705    1.08198611245374
C          -5.27792355922696   -2.75818405939446   -0.03390944805124
C          -4.40825514159459   -2.87401410706324   -1.12617003051255
C          -3.46545423032488   -3.84694395896756   -1.48745145253238
C          -2.69629205078931   -3.66660690013968   -2.60328031257193
C          -8.29371795525447   -1.91453902577302    0.89444645995913
C          -8.56702847371796   -2.97659508502999   -0.05853799691690
C          -9.56530489286370   -2.93610336909958   -0.95714443501142
C          -9.99227961789914   -3.90975588599244   -1.93052761164180
C         -10.99098240952267   -3.34277792558658   -2.79432406651826
C         -11.34540984273267   -2.05568411492896   -2.49534818734040
S         -10.57260150006010   -1.44095693508794   -1.07514077929473
O          -9.52313050566800   -0.35262615312167   -1.55679791846398
O         -11.54142305563523   -3.94039009345348   -3.85145792196965
C          -9.49814785067169   -5.21037106594989   -1.90827435318221
C          -9.91226049156227   -6.33279683871876   -2.60479125013513
C          -9.32306263209224   -7.56794210595104   -2.37561050881919
C          -9.71678739499238   -8.75355242398866   -2.97990053505380
C          -9.20975582434266  -10.06723557136376   -2.70180478152630
C          -8.22566444159145  -10.41908724214665   -1.80371533646457
C          -7.79661618727681  -11.74077104051289   -1.57762948984974
N          -7.39739682155346  -12.79159196262578   -1.33678397816808
C          -7.50718684652174   -9.52572286831067   -0.98869251326118
N          -6.87982989332286   -8.85681187393328   -0.29514978657233
C          -9.94562516572461  -11.01213060766817   -3.54786629306054
C         -10.86095080397081  -10.29249183332853   -4.33329708844586
C         -10.75300763438848   -8.84970385575325   -4.01101299707113
O         -11.39988213397387   -7.95122127477679   -4.52457659549917
C         -11.69527167519161  -10.91631152578569   -5.23493402376134
C         -11.61975405205218  -12.29967336128230   -5.35348128616438
C         -10.71861271061791  -13.02408572345210   -4.57318364345678
C          -9.87468233017909  -12.38872066295107   -3.66650879139719
Cl        -10.63973175676002  -14.73631993232947   -4.72261500705953
Cl        -12.64516673041591  -13.11575684138108   -6.46711249404286
H           1.28097089802937   -9.96290272911621   -8.38042020537116
H           5.16598836746802   -6.95683476506716   -9.17714699474669
H          -0.09512169732543   -5.42605427221307   -6.03742519611333
H           1.59271444602398   -0.36813337358139   -7.85474025865444
H           1.32989433669218   -3.30621681563798  -10.03645270574438
H          -0.71563428639016   -0.42748583067245   -5.07746826863475
H          -0.89777470876051   -4.01277427738841   -4.62741227057532
H          -2.29137638231764   -1.31958406592025   -5.05939203402753
H          -3.93933833411838   -0.68521020819457   -3.71117413612443
H          -7.10718318829762    0.59755191008414   -1.23082144012678
H          -5.14044554923550    1.83993608646452   -0.74775221153560
H          -5.88436868755631    2.45531415612983   -2.23607973958213
H          -3.47267470105270    0.83777263796200   -2.07303903402173
H          -3.64956790756960    2.34037354037406   -2.69567033588825
H          -5.95941485233822   -0.02261944409533   -3.97841312807457
H          -7.33426079974231    1.03350725945588   -3.61052909972381
H          -7.25108249475040   -1.81614544952923   -2.93930989101457
H          -8.10918120083864   -1.15544516343735   -4.18910932317451
H          -7.09367690046899   -0.05341938325512    0.99800406672634
H          -7.48233302104968   -1.64573143196039    2.92760360085377
H          -6.51631605757550   -3.89592656254637    2.91008688280661
H          -4.90435975179244   -4.50506336656656    1.17225575472219
H          -3.33943774639653   -4.72712454654737   -0.87495544760363
H          -1.95627883066988   -4.40739735236993   -2.86004992384376
H          -9.16010756125390   -1.32492659968022    1.17401246214352
H          -7.88288043941428   -3.81402278191024   -0.06079984213947
H         -12.13382988917730   -1.51028425752559   -2.97063644609621
H          -8.79532964914799   -0.63775116447281   -2.29053218347448
H         -11.19757226406619   -4.83731840805219   -3.97667739242937
H          -8.69988845127467   -5.38505312338887   -1.19652916309013
H         -10.74340570024088   -6.32304983650815   -3.29166888632465
H          -8.51293609361966   -7.60372945804703   -1.65993941412451
H         -12.38909878237444  -10.34483124300274   -5.83036466954249
H          -9.19152354776651  -12.98255998696342   -3.08237737739007
