124
 SCF done       -218.519005748961          0.001726239676
C          -0.09524917362877    8.88082291835571    2.63359665512226
C          -0.09160556538501    8.85379290431434    4.00122869723794
C          -0.90070677366542    7.99033443389067    4.76999545115040
N          -1.54166778465494    7.31818414661492    5.44362567885966
C           0.68204822786879    9.71201468279066    4.81007863863552
N           1.29081528781056   10.38564181982349    5.51197929146150
C          -0.89321915199631    8.02623334144310    1.76073091617338
C          -0.77983744557709    8.50674491021722    0.42352479027527
C          -1.39692146196760    7.88653614332702   -0.62506386361987
C          -2.13693440781752    6.70934056381580   -0.38378168720104
C          -2.23665824913503    6.20743681166682    0.94656371922392
C          -1.61573901837423    6.89123979324995    2.01674208219336
C          -2.95108181655621    5.01303350843138    1.16660055802716
C          -3.53641414617406    4.34582001254211    0.12515467610661
C          -3.44144256442837    4.84441594498356   -1.18267463171378
C          -2.75754000804231    6.00288472477967   -1.43223264751073
C           0.13501442620086    9.65047456200220    0.40074543094552
O           0.32936106595308   10.41972255095038   -0.52228583720261
C           0.70353531433020    9.73804403062178    1.77076264551852
C           1.83081036694661   10.43377914243603    2.07967740251920
C           2.75531617350482   10.92174704395280    1.10799492134331
C           3.41341147142835   12.12310969898218    1.13902110983929
C           4.14392978570235   12.27265135049556   -0.08791357999733
C           4.96146308721366   13.35569374905740   -0.43054538309430
N           5.62761282028717   14.23668097189909   -0.74563881662550
C           3.91371167804049   11.16860563130800   -0.88561764047408
C           3.07363306280660   10.26796284557244   -0.17871713209223
C           2.68460821689811    8.99115116817601   -0.55142700078878
C           2.31015267043425    8.55030126555646   -1.93398255424479
C           1.78094150978085    7.29072223616505   -1.82846470568133
C           1.83547656611517    6.88910390985159   -0.45819616998693
C           2.35857611272931    7.92058332272798    0.30757960689719
C           1.34018764795728    5.67716401761066    0.03596659333864
N           0.89052575375865    4.70088928899478    0.44104866829026
C           2.29181320635261    9.42847242718421   -3.04013252332060
C           1.55941044190477    9.25700045783764   -4.16987279204277
N           1.53625259373121   10.17556588074305   -5.16328135868734
C           0.50524363276267   10.28086725765783   -6.17410957198475
C           1.08568661352060   10.02160334859231   -7.56038582734914
C           0.00597053340030   10.16612544738811   -8.63308250944496
N           0.64124310574309   10.11490484182278   -9.93918071753396
S           0.81041031973677   11.73901917859709  -10.47903026674490
N          -0.66431683237245   12.24754391957777   -9.76008661439422
C          -0.75479745213414   11.53977272804032   -8.49596767395014
C          -0.11775269413478   12.41904319783384   -7.42169801040373
C          -0.07770881357844   11.72752501321306   -6.06096538547175
N           0.76995691551572   12.49499813762134   -5.16215067409341
S           2.27073971058637   11.71665339616016   -5.04529157856402
C           0.28707910235080   13.12476920094182   -3.95904123753764
C           1.38103449926442   14.06716676049932   -3.53291843659084
C           1.60933276673506   14.38299795703154   -2.25076918593289
C           2.58208673385019   15.25563165869290   -1.64360875320567
C           2.33239213360441   15.27358495474908   -0.30002529122026
C           3.02973584586611   15.99396209094894    0.68395547861891
N           3.57251688963032   16.56937102519673    1.51425377803478
C           1.19051931926543   14.43577369422400    0.00311022771549
C           0.73515382102983   13.89972782980437   -1.16212652069526
C          -0.30870559227696   13.02140065490164   -1.52924603972723
C          -1.56067687159342   12.75522228793645   -1.00526379692294
C          -2.14610754146881   11.70280587395151   -1.78580538243840
C          -1.32926144011378   11.36293358676831   -2.81785007843431
C          -0.07609061432440   12.18829411024565   -2.76315818735187
C          -1.55009292404897   10.27671130750184   -3.65552576364864
N          -1.73174681301608    9.34283676255145   -4.30610071901610
C          -2.26913746080069   13.42033718550050    0.04391552390261
C          -1.97475515936434   14.67057246601639    0.47582043262861
C          -2.72466589583444   15.35810995883509    1.45747837157814
C          -2.44524133353956   16.63293286468744    1.86310659625116
C          -3.19451329947424   17.43029113386617    2.81758299440754
C          -4.34003387242422   17.06514109290234    3.47764520654817
C          -5.02948181622342   17.89599627035856    4.38573639037813
N          -5.64386908763318   18.51648771937899    5.13118329767637
C          -5.00704729433831   15.82981852520881    3.34707109302396
N          -5.61253470456249   14.85501482954945    3.29086960460850
C          -2.52520840886377   18.72057320476514    2.94359639282000
C          -1.38155532338654   18.72526193029564    2.09517198379281
C          -1.29083379983265   17.44180008011416    1.38444103234629
O          -0.43917211456418   17.12661215791365    0.57603788495393
C          -0.54840977999399   19.80321441597194    2.00702085422777
C          -0.83415435347422   20.95703717592567    2.76967975145216
C          -1.98349880098471   20.96709733501806    3.61199741363172
C          -2.82076081453214   19.83041038558720    3.69074446124649
C          -2.26585594133761   22.12817508912078    4.36008144981402
C          -1.45266755943858   23.22599395080421    4.28240846910849
C          -0.31892669414830   23.21297628435131    3.45615587504437
C          -0.01599426371789   22.10244251855647    2.71597219123240
H          -1.29718717783656    8.27091834975843   -1.63007332506595
H          -1.70631383782058    6.48441534487970    3.01148512703824
H          -3.02106017190336    4.63129052059161    2.17410428935413
H          -4.07530204194640    3.42753397991273    0.30340856246494
H          -3.91030310775914    4.30440403698486   -1.99169337628216
H          -2.67762574799525    6.39537930912730   -2.43575088065724
H           2.08838279900709   10.61242757960554    3.11679629236211
H           3.35989240771989   12.86694432547362    1.91242215785983
H           4.43049851924194   10.96198200966712   -1.80437976965708
H           1.39407272338135    6.67979273257431   -2.62116506204547
H           2.56514661649595    7.87326801583855    1.35997217456299
H           2.83859500160484   10.35540417158693   -2.94682241663746
H           0.94372308720373    8.38490318583250   -4.33257819430175
H          -0.27736550350455    9.54657554547059   -5.96041448596084
H           1.49319266619153    9.01078503053310   -7.60312412672460
H           1.90027260416356   10.71461136336067   -7.77215878975209
H          -0.70379418956394    9.33774123579096   -8.54119934771310
H           0.11993721792625    9.56110689821706  -10.61088090212910
H          -1.45290673542457   12.06632925886175  -10.37356341633689
H          -1.80675874235729   11.36672901591503   -8.24937332573352
H          -0.68661627337344   13.34592682835714   -7.34367702140941
H           0.89294806783149   12.68342151478805   -7.73336333499047
H          -1.08872549528988   11.68041667439410   -5.64264606336098
H          -0.60739358096213   13.70669190843207   -4.22605753697999
H           1.99813020077425   14.45376961912070   -4.33131996224523
H           3.35562071864604   15.78670045067468   -2.16311368013406
H           0.81283297113631   14.26980828278083    0.99413888982477
H          -3.09798422058449   11.24959535598904   -1.56886033679995
H           0.78071994422105   11.52608929955646   -2.59271290093996
H          -3.13624695027980   12.90513187203365    0.44188571378343
H          -1.15083043888944   15.20276372196324    0.02905396966969
H          -3.56425270942273   14.83243583901928    1.89400657493543
H           0.31726342609847   19.77373966997420    1.36200224409463
H          -3.67844183820991   19.86996235717917    4.34309280448065
H          -3.13899556294850   22.13345519789724    4.99599228227556
H          -1.67843559644067   24.11085986500137    4.85848762304560
H           0.31301895103720   24.08719110488011    3.40914769992492
H           0.85561550402951   22.08524351687640    2.07826410751213
