# ORCA input file
# SCF done       -188.172619284798          0.000425037120
! CAM-B3LYP def2-SVP def2/J RIJCOSX Grid4 TightSCF
%maxcore 5000
%tddft
    Mode sTDDFT
    Ethresh 5.0
    maxcore 5000
end

%pal
  nprocs 6
  end
* xyz 0 1
   C       -1.58376        -5.47854       -12.00047
   C       -0.67685        -4.53279       -12.39204
   F       -0.54652        -4.24355       -13.69380
   C        0.13872        -3.82859       -11.47585
   F        0.95748        -2.90308       -11.97414
   C        0.06250        -4.03829       -10.11040
   C       -0.86812        -5.01756        -9.67804
   C       -1.68778        -5.73010       -10.62443
   N       -2.50891        -6.59278       -10.02207
   S       -2.25431        -6.52838        -8.43835
   N       -1.10129        -5.41546        -8.42830
   C        0.93087        -3.35317        -9.17684
   N        2.18647        -3.10445        -9.47641
   C        2.73901        -2.58655        -8.35337
   C        1.75635        -2.53924        -7.25973
   C        2.35994        -1.96609        -6.04690
   O        1.86565        -1.81149        -4.95168
   C        3.72936        -1.64001        -6.49751
   C        3.91824        -2.04970        -7.90721
   N        5.16517        -1.72597        -8.33474
   C        5.73795        -1.14460        -7.31214
   C        4.89320        -1.04502        -6.13570
   C        0.57280        -2.97709        -7.79090
   C       -0.73168        -3.04027        -7.20742
   C       -0.92100        -3.29472        -5.90068
   C       -2.21823        -3.42043        -5.27305
   C       -3.27505        -2.60523        -5.61167
   C       -4.52449        -2.76950        -4.97732
   C       -5.72798        -2.06964        -5.07999
   C       -6.06528        -0.81611        -5.81470
   C       -5.42015         0.42793        -5.15979
   N       -3.97412         0.39215        -5.24154
   C       -5.72161        -0.87664        -7.31156
   N       -6.36832        -2.03801        -7.90053
   C       -6.69559        -2.78928        -4.28260
   C       -8.02494        -2.62614        -4.13313
   C       -8.83158        -3.63114        -3.40153
   C       -8.04514        -4.60171        -2.57662
   C       -6.70815        -4.74819        -2.73638
   C       -6.00790        -3.90529        -3.61853
   C       -4.68744        -3.87297        -4.04085
   C       -3.58303        -4.68146        -3.70118
   C       -2.37770        -4.43401        -4.27808
   C       -9.41537        -4.65519        -4.34892
   C       -8.86641        -4.99771        -5.53039
   C       -9.41319        -6.01572        -6.35637
   N      -10.49636        -6.70842        -6.01336
   C      -10.72960        -7.55347        -7.02855
   C       -9.72993        -7.40032        -8.09996
   C      -10.01472        -8.33105        -9.20755
   O       -9.40056        -8.47987       -10.24308
   C      -11.22515        -9.02383        -8.74217
   C      -11.62637        -8.52753        -7.41172
   N      -12.74399        -9.15588        -6.98294
   C      -13.05801        -9.99264        -7.94824
   C      -12.15604        -9.95987        -9.07391
   C       -8.87850        -6.41047        -7.68096
   C       -7.74327        -5.81821        -8.31099
   C       -7.32930        -6.12833        -9.55678
   C       -6.25518        -5.45600       -10.24373
   C       -5.20816        -4.77087        -9.65359
   F       -5.01722        -4.81551        -8.31401
   C       -4.27701        -4.01284       -10.38983
   F       -3.33807        -3.33927        -9.69010
   C       -4.29336        -3.92507       -11.75292
   C       -5.28224        -4.67073       -12.41225
   C       -6.25423        -5.42675       -11.66537
   N       -7.11654        -6.04729       -12.46538
   S       -6.73550        -5.73426       -13.98894
   N       -5.46962        -4.78031       -13.72771
   H       -2.19422        -6.00352       -12.71552
   H        6.75239        -0.79242        -7.38483
   H        5.17342        -0.59481        -5.20384
   H       -1.57376        -2.91539        -7.87307
   H       -0.06214        -3.50532        -5.27749
   H       -3.13082        -1.81638        -6.33154
   H       -7.14845        -0.67751        -5.74616
   H       -5.79825         0.50261        -4.12594
   H       -5.76564         1.30758        -5.70940
   H       -3.59225        -0.26487        -4.57034
   H       -3.58029         1.30391        -5.04430
   H       -4.63203        -0.86017        -7.43876
   H       -6.12869         0.01501        -7.79601
   H       -5.94439        -2.87734        -7.52009
   H       -6.23143        -2.04347        -8.90554
   H       -8.56897        -1.82939        -4.62011
   H       -9.63492        -3.15589        -2.83240
   H       -8.60519        -5.23737        -1.91011
   H       -6.16747        -5.49801        -2.17776
   H       -3.70623        -5.47810        -2.98269
   H       -1.51447        -5.03024        -4.02197
   H      -10.29021        -5.18888        -4.00806
   H       -7.98682        -4.48456        -5.89054
   H      -13.92456       -10.62421        -7.85568
   H      -12.23790       -10.55928        -9.95896
   H       -7.23929        -5.04639        -7.74818
   H       -7.86804        -6.85706       -10.14811
   H       -3.58570        -3.32205       -12.29435
*
