# ORCA input file
# SCF done       -211.373534708806          0.000909961737
! CAM-B3LYP def2-SVP def2/J RIJCOSX Grid4 TightSCF
%maxcore 5000
%tddft
    Mode sTDDFT
    Ethresh 5.0
    maxcore 5000
end

%pal
  nprocs 6
  end
* xyz 0 1
   C        5.18237        -8.26650        -3.81695
   S        4.50120        -8.12417        -2.24905
   C        3.04145        -7.41689        -2.86163
   C        3.12560        -7.30277        -4.23923
   C        4.34603        -7.79139        -4.78930
   O        4.53040        -7.70583        -6.12178
   C        5.64944        -8.36519        -6.69211
   C        5.47423        -9.87800        -6.72060
   O        2.13652        -6.78904        -5.03192
   N        1.62527        -7.66885        -6.03998
   O        0.90583        -7.11338        -6.79015
   O        1.96958        -8.79349        -5.98414
   C        2.00586        -7.05104        -1.96279
   C        0.88409        -6.35121        -2.26544
   C       -0.08245        -6.08011        -1.25699
   N        0.07932        -6.52677        -0.01682
   C       -1.00549        -6.12091         0.66727
   C       -1.92813        -5.36282        -0.18696
   C       -3.10314        -4.93994         0.58729
   O       -4.07231        -4.30612         0.21854
   C       -2.82277        -5.47840         1.93119
   C       -1.53462        -6.19277         1.93651
   N       -1.26583        -6.68995         3.16801
   C       -2.28897        -6.33486         3.90972
   C       -3.29615        -5.57462         3.20163
   C       -1.34431        -5.32047        -1.43379
   C       -1.78099        -4.71341        -2.64348
   C       -2.96625        -4.06346        -2.73539
   C       -3.50111        -3.41941        -3.90256
   C       -2.79498        -3.29482        -5.08298
   C       -3.38652        -2.66438        -6.19224
   C       -2.90500        -2.43357        -7.47800
   C       -1.58472        -2.73207        -8.11306
   C       -0.61020        -1.54537        -7.92723
   N       -0.24270        -1.33438        -6.53850
   C       -0.94526        -4.08853        -7.75872
   N       -0.32949        -4.15877        -6.44548
   C       -3.95835        -1.74834        -8.19692
   C       -4.02472        -1.29544        -9.46295
   C       -5.22390        -0.58121        -9.97303
   C       -6.38220        -0.53369        -9.02180
   C       -6.29027        -0.97508        -7.75013
   C       -5.10309        -1.58291        -7.28928
   C       -4.74212        -2.14103        -6.07719
   C       -5.43615        -2.26776        -4.85254
   C       -4.83023        -2.88495        -3.80648
   C       -4.95775         0.88398       -10.19516
   C       -4.02364         1.59593        -9.54391
   C       -3.87043         2.99751        -9.75816
   N       -4.67525         3.67403       -10.56715
   C       -4.24399         4.94864       -10.53578
   C       -3.07558         5.09903        -9.65656
   C       -2.63006         6.49890        -9.62980
   O       -1.70393         6.98888        -9.01485
   C       -3.58932         7.16161       -10.53068
   C       -4.55528         6.18207       -11.06177
   N       -5.44359         6.78412       -11.88803
   C       -5.09457         8.05024       -11.90036
   C       -3.94734         8.35477       -11.07594
   C       -2.82339         3.84800        -9.14563
   C       -1.81880         3.40009        -8.24769
   C       -0.83231         4.19791        -7.77392
   C        0.16516         3.77099        -6.86559
   S        0.21508         2.17297        -6.18167
   C        1.60787         2.53258        -5.23033
   C        2.02604         3.83261        -5.46381
   C        1.22226         4.54384        -6.39322
   O        1.37458         5.78906        -6.86707
   C        2.06975         6.77614        -6.11685
   C        1.41940         7.05113        -4.76808
   O        3.16281         4.35392        -4.89168
   N        4.40296         3.88269        -5.44092
   O        5.33830         4.37021        -4.92031
   O        4.31627         3.09135        -6.31175
   C        2.15869         1.52740        -4.36125
   C        3.01365         1.74247        -3.36207
   H        6.16202        -8.68534        -3.92218
   H        6.56417        -8.08156        -6.15843
   H        5.69929        -7.97034        -7.70960
   H        5.43802       -10.28573        -5.71347
   H        6.30412       -10.33032        -7.25522
   H        4.54496       -10.13072        -7.22475
   H        2.13249        -7.36155        -0.93419
   H        0.70621        -5.98171        -3.26382
   H       -2.32686        -6.60944         4.94969
   H       -4.20315        -5.19215         3.62681
   H       -1.12919        -4.78961        -3.50204
   H       -3.59311        -4.02281        -1.85377
   H       -1.79164        -3.67895        -5.19942
   H       -1.77144        -2.78452        -9.19299
   H       -1.07876        -0.65594        -8.38504
   H        0.30891        -1.75776        -8.48341
   H       -1.07538        -1.20494        -5.97294
   H        0.32492        -0.49806        -6.45630
   H       -0.21897        -4.30511        -8.56049
   H       -1.72104        -4.86058        -7.80373
   H        0.20186        -5.01976        -6.38388
   H        0.29568        -3.36697        -6.32177
   H       -3.20146        -1.39653       -10.15740
   H       -5.52982        -1.02804       -10.92787
   H       -7.28398        -0.07357        -9.39320
   H       -7.13446        -0.89700        -7.08064
   H       -6.43813        -1.87431        -4.76501
   H       -5.34595        -2.99202        -2.86347
   H       -5.61620         1.40326       -10.87624
   H       -3.35438         1.11614        -8.84385
   H       -5.64775         8.75898       -12.49206
   H       -3.50754         9.32461       -10.95101
   H       -1.84873         2.36381        -7.93332
   H       -0.76821         5.23472        -8.07935
   H        2.01058         7.66029        -6.75572
   H        3.12393         6.50735        -5.98861
   H        1.50866         6.18862        -4.11127
   H        0.36618         7.28427        -4.90619
   H        1.91148         7.89691        -4.29717
   H        1.80017         0.52466        -4.55272
   H        3.36651         2.72270        -3.09215
   H        3.36942         0.92631        -2.75923
*
