# ORCA input file
# SCF done       -167.386227642514          0.000707065578
! CAM-B3LYP def2-SVP def2/J RIJCOSX Grid4 TightSCF
%maxcore 5000
%tddft
    Mode sTDDFT
    Ethresh 5.0
    maxcore 5000
end

%pal
  nprocs 6
  end
* xyz 0 1
   C       -4.57594         7.24708        -4.73351
   C       -5.65969         7.41422        -3.95494
   C       -5.34933         7.05203        -2.58570
   C       -4.04966         6.65156        -2.49134
   C       -3.46490         6.74641        -3.88983
   O       -2.34695         6.46211        -4.24342
   C       -3.36400         6.23082        -1.33143
   C       -2.04173         5.89805        -1.29244
   C       -1.40941         5.50367        -0.09109
   N       -2.03616         5.56418         1.08514
   C       -1.11925         5.25570         2.01279
   C        0.19270         4.99626         1.40046
   C        1.19440         4.66817         2.42642
   O        2.37091         4.41361         2.27830
   C        0.40491         4.73169         3.67054
   C       -0.99473         5.09524         3.37628
   N       -1.72975         5.13287         4.51208
   C       -0.89186         4.81212         5.47200
   C        0.45258         4.54257         5.01658
   C        0.01317         5.10271         0.04741
   C        0.98926         4.87745        -0.97089
   C        0.73156         4.43004        -2.21705
   C        1.71602         4.16643        -3.23618
   C        1.35227         3.41725        -4.33665
   C        2.29624         3.12177        -5.33574
   C        2.19098         2.36394        -6.49854
   C        0.97977         1.63573        -6.96977
   C        0.57991         2.02343        -8.40651
   N       -0.86055         1.93109        -8.54458
   C        1.17496         0.11365        -6.82721
   N        1.21155        -0.23155        -5.41939
   C        3.48935         2.38412        -7.12869
   C        3.95167         1.81153        -8.25688
   C        5.38103         1.94419        -8.67034
   C        6.19721         2.85955        -7.82101
   C        5.71830         3.43741        -6.70238
   C        4.38243         3.21160        -6.29906
   C        3.64894         3.64252        -5.21011
   C        3.98854         4.43100        -4.08719
   C        3.05295         4.67392        -3.13410
   C        5.92290         0.53576        -8.66227
   C        6.59181         0.00485        -7.62998
   C        7.08386        -1.33803        -7.65776
   N        6.93188        -2.11027        -8.71974
   C        7.53089        -3.28160        -8.41370
   C        8.10362        -3.25427        -7.06365
   C        8.75271        -4.53849        -6.75677
   O        9.32494        -4.87665        -5.74376
   C        8.53269        -5.31561        -7.99308
   C        7.78142        -4.51106        -8.97552
   N        7.57335        -5.21631       -10.11489
   C        8.13838        -6.38075        -9.90231
   C        8.75567        -6.51044        -8.59825
   C        7.82003        -2.00602        -6.55487
   C        8.11456        -1.41804        -5.30016
   C        8.81553        -2.03861        -4.31151
   C        9.10395        -1.45542        -3.05555
   C        8.77083        -0.24504        -2.51662
   C        9.30197        -0.11772        -1.18627
   C        9.98834        -1.23846        -0.83717
   C        9.91559        -2.17961        -2.00914
   O       10.40510        -3.27348        -2.09006
   C       10.68871        -1.59727         0.35884
   C       10.81340        -0.82846         1.44336
   H       -4.47868         7.42143        -5.78777
   H       -6.62798         7.76409        -4.26693
   H       -6.05525         7.10759        -1.77667
   H       -3.92860         6.17179        -0.40910
   H       -1.44303         5.96105        -2.18778
   H       -1.22815         4.77242         6.49370
   H        1.27850         4.26114         5.63963
   H        2.01053         5.00481        -0.63631
   H       -0.28495         4.17876        -2.48954
   H        0.34481         3.03842        -4.42259
   H        0.14025         1.91127        -6.32652
   H        1.12793         1.39519        -9.12909
   H        0.85861         3.06564        -8.58690
   H       -1.17374         0.97526        -8.41628
   H       -1.15740         2.23986        -9.46277
   H        2.08146        -0.19144        -7.37870
   H        0.31891        -0.40561        -7.26764
   H        1.99770         0.22165        -4.96533
   H        1.30675        -1.23259        -5.29391
   H        3.33020         1.19594        -8.89008
   H        5.41129         2.29851        -9.71039
   H        7.21705         3.01186        -8.13994
   H        6.34264         4.08642        -6.10533
   H        4.98774         4.83169        -3.99855
   H        3.30750         5.28286        -2.28112
   H        5.72753        -0.08112        -9.52742
   H        6.78642         0.59590        -6.74637
   H        8.11895        -7.14051       -10.66442
   H        9.26711        -7.37901        -8.23315
   H        7.75230        -0.41248        -5.13289
   H        9.19244        -3.04249        -4.46669
   H        8.18988         0.52848        -2.98738
   H        9.15485         0.75726        -0.57861
   H       11.13723        -2.58266         0.33436
   H       10.37861         0.15503         1.49804
   H       11.35448        -1.16431         2.31032
*
