# ORCA input file
# SCF done       -199.816718077607          0.000777203934
! CAM-B3LYP def2-SVP def2/J RIJCOSX Grid4 TightSCF
%maxcore 5000
%tddft
    Mode sTDDFT
    Ethresh 5.0
    maxcore 5000
end

%pal
  nprocs 6
  end
* xyz 0 1
   C       -3.77245        -6.96658        10.52353
   C       -3.59423        -6.44591         9.27146
   C       -2.46877        -5.66892         8.93887
   C       -1.48210        -5.39662         9.85362
   C       -1.63883        -5.91116        11.16043
   C       -2.79147        -6.70183        11.49314
   N       -2.76611        -7.09972        12.76677
   S       -1.43552        -6.53554        13.45798
   N       -0.81929        -5.74729        12.19968
   C       -0.28534        -4.60725         9.55749
   C       -0.33930        -3.28443         9.12425
   C       -1.51685        -2.42924         8.83481
   O       -2.68730        -2.70865         8.89478
   N       -0.99439        -1.18389         8.47306
   C        0.40676        -1.15881         8.51970
   O        1.08445        -0.20004         8.25914
   C        0.81645        -2.51394         8.94599
   C        2.08120        -3.01201         9.19163
   C        2.14717        -4.33816         9.60520
   C        1.00360        -5.12223         9.77062
   C        1.28067        -6.52404        10.12771
   O        0.52128        -7.44320        10.20169
   S        3.05378        -6.71507        10.38577
   C        3.41678        -5.02221         9.91350
   O        4.51992        -4.56688         9.87091
   C       -1.69919        -0.03815         8.10881
   C       -3.02539         0.04552         7.96154
   C       -3.75320         1.23870         7.58407
   C       -5.09325         1.11979         7.28181
   C       -5.84836         2.24593         6.90085
   C       -7.18557         2.39689         6.54076
   C       -8.25652         1.36798         6.44500
   C       -8.01867         0.43886         5.23653
   N       -8.23799         1.17285         4.00275
   C       -8.41659         0.53805         7.73152
   N       -9.64867        -0.22898         7.65782
   C       -7.37492         3.79091         6.21623
   C       -8.45380         4.46269         5.77073
   C       -8.40840         5.92634         5.51498
   C       -7.07004         6.56076         5.72431
   C       -5.99817         5.87225         6.16522
   C       -6.09943         4.48712         6.41882
   C       -5.18019         3.53652         6.83386
   C       -3.81274         3.63682         7.16385
   C       -3.12477         2.52152         7.52660
   C       -9.35893         6.63046         6.45249
   C      -10.25783         7.52473         6.05328
   C      -11.13356         8.26002         6.95143
   C      -10.70685         8.83009         8.15527
   C       -9.34972         8.90842         8.75600
   O       -8.30320         8.49442         8.32001
   N       -9.50350         9.60605         9.95424
   C      -10.82533        10.02519        10.16135
   O      -11.21307        10.64778        11.11329
   C      -11.58281         9.53836         8.98839
   C      -12.91649         9.72596         8.68053
   C      -13.35025         9.17829         7.47949
   C      -12.49101         8.46687         6.63558
   C      -13.14005         7.94339         5.42649
   O      -12.66511         7.27340         4.55395
   S      -14.86734         8.45088         5.41899
   C      -14.73547         9.29988         6.99746
   O      -15.65139         9.85336         7.52802
   C       -8.52008         9.89372        10.89898
   C       -7.24732         9.48887        10.84165
   C       -6.25433         9.78378        11.84898
   C       -4.97122         9.28539        11.71634
   C       -3.95487         9.52195        12.65511
   C       -4.17217        10.27440        13.77724
   C       -5.45719        10.80833        13.96418
   C       -6.50702        10.56838        13.00609
   N       -7.64499        11.16016        13.36943
   S       -7.41578        11.93121        14.76070
   N       -5.87078        11.56288        14.98423
   H       -4.62851        -7.56862        10.78133
   H       -4.33028        -6.63352         8.50457
   H       -2.37101        -5.29735         7.93038
   H        2.97103        -2.41449         9.07370
   H       -1.02567         0.79074         7.93897
   H       -3.62790        -0.83658         8.12068
   H       -5.55736         0.14638         7.32285
   H       -9.21018         1.87857         6.27242
   H       -8.68172        -0.43119         5.35794
   H       -6.98263         0.09385         5.24160
   H       -9.22553         1.37107         3.88060
   H       -7.92891         0.63163         3.20422
   H       -8.37371         1.21945         8.59785
   H       -7.59660        -0.17505         7.82423
   H      -10.45437         0.38709         7.69318
   H       -9.71594        -0.87224         8.43800
   H       -9.40456         3.97868         5.59739
   H       -8.74523         6.11538         4.48667
   H       -7.01861         7.62127         5.53684
   H       -5.05002         6.36772         6.31380
   H       -3.32467         4.59941         7.12487
   H       -2.08183         2.60145         7.78768
   H       -9.23175         6.38422         7.49565
   H      -10.41199         7.70953         4.99876
   H      -13.58528        10.27361         9.32480
   H       -8.89658        10.48606        11.72200
   H       -6.90016         8.89754        10.00740
   H       -4.74043         8.68311        10.84955
   H       -2.97905         9.09469        12.47819
   H       -3.40222        10.46535        14.50646
*
