# ORCA input file
# SCF done       -217.804507175149          0.000465945987
! CAM-B3LYP def2-SVP def2/J RIJCOSX Grid4 TightSCF
%maxcore 5000
%tddft
    Mode sTDDFT
    Ethresh 5.0
    maxcore 5000
end

%pal
  nprocs 6
  end
* xyz 0 1
   C       -6.20640         0.87677        -3.75509
   C       -6.27839         2.07252        -4.42395
   C       -5.36449         2.47941        -5.41728
   N       -4.64786         2.86978        -6.22492
   C       -7.29633         3.03088        -4.24877
   N       -8.10579         3.84323        -4.17533
   C       -5.24756        -0.18589        -4.01888
   C       -5.62568        -1.32755        -3.27014
   C       -4.92349        -2.50738        -3.31596
   C       -3.79325        -2.56282        -4.13738
   C       -3.41938        -1.41484        -4.87626
   C       -4.13055        -0.22170        -4.83192
   S       -1.99032        -1.71047        -5.81612
   C       -1.90964        -3.33474        -5.22709
   C       -2.90170        -3.64868        -4.36568
   C       -6.84015        -1.02902        -2.48682
   O       -7.42548        -1.80371        -1.76003
   C       -7.13322         0.40303        -2.74175
   C       -7.95777         1.21402        -2.01688
   C       -8.97231         0.86038        -1.08426
   C       -9.68756        -0.32624        -1.09329
   S      -10.94945        -0.42451         0.05318
   C      -10.55542         1.15117         0.64380
   C       -9.48950         1.72437        -0.06571
   N       -9.19243         2.94936         0.46958
   C       -8.14567         3.86008         0.07586
   C       -8.59439         4.82455        -1.01878
   C      -10.07946         3.17081         1.49364
   C      -10.93499         2.06818         1.63126
   S      -12.04485         2.27228         2.93527
   C      -11.34496         3.82440         3.27742
   C      -10.32602         4.18939         2.45088
   C       -9.59766         5.46798         2.55700
   C       -9.91542         6.51593         1.74518
   C       -9.18333         7.72510         1.83955
   C       -9.27980         8.90835         1.12903
   C      -10.21929         9.16379        -0.00110
   C      -10.90672        10.54711         0.07330
   N      -12.22204        10.61349        -0.52775
   C       -9.52212         8.94241        -1.37660
   N       -8.35315         9.74021        -1.65280
   C       -8.26905         9.79705         1.66385
   C       -7.92594        11.06482         1.36804
   C       -6.82413        11.77584         2.07015
   C       -6.13758        10.97175         3.13117
   C       -6.50288         9.71283         3.43385
   C       -7.55511         9.07948         2.73249
   C       -8.12093         7.82381         2.83028
   C       -7.83879         6.72167         3.66975
   C       -8.55579         5.57692         3.52891
   C       -7.30587        13.07494         2.67920
   C       -8.53631        13.23618         3.16122
   C       -9.03134        14.44133         3.79780
   C       -8.23431        15.40341         4.36432
   S       -9.07280        16.72801         5.08600
   C      -10.57600        16.01714         4.63301
   C      -10.40217        14.80080         3.95402
   N      -11.62916        14.29808         3.59829
   C      -11.90149        13.10025         2.84700
   C      -12.03481        11.87676         3.75279
   C      -12.57521        15.16457         4.06888
   C      -11.95452        16.25202         4.69883
   S      -13.10510        17.41405         5.24955
   C      -14.38253        16.47307         4.59385
   C      -13.99186        15.28868         4.00290
   C      -14.90345        14.30644         3.49711
   C      -16.10990        14.50849         2.91552
   C      -16.74495        15.70171         2.38960
   C      -16.10096        16.78035         1.84389
   C      -16.76383        17.88709         1.27753
   N      -17.26325        18.81652         0.82519
   C      -14.69975        16.84747         1.69910
   N      -13.57145        16.90941         1.49740
   C      -18.17340        15.42688         2.30706
   C      -18.38492        14.04219         2.54011
   C      -17.09594        13.39573         2.84518
   O      -16.87543        12.22230         3.04625
   C      -19.63356        13.47088         2.48515
   C      -20.72119        14.30181         2.20014
   C      -20.50001        15.68349         1.98277
   C      -19.23730        16.26237         2.02792
   S      -21.98827        16.51478         1.65898
   C      -22.87476        15.03707         1.80888
   C      -22.10036        13.96673         2.09012
   H       -5.23882        -3.36138        -2.73674
   H       -3.80410         0.62737        -5.40905
   H       -1.11068        -3.96387        -5.56843
   H       -3.01230        -4.61092        -3.89934
   H       -7.82608         2.27944        -2.15312
   H       -9.55319        -1.14288        -1.77205
   H       -7.28229         3.27493        -0.25461
   H       -7.85362         4.42981         0.96284
   H       -7.77904         5.49716        -1.27150
   H       -9.43514         5.41559        -0.66675
   H       -8.89630         4.29799        -1.92090
   H      -11.74759         4.39784         4.08888
   H      -10.72814         6.42443         1.03793
   H      -11.01452         8.40980         0.06022
   H      -10.29825        11.30670        -0.42451
   H      -11.01386        10.82996         1.12333
   H      -12.17781        10.38352        -1.51462
   H      -12.85329         9.95449        -0.08438
   H      -10.24867         9.13509        -2.17209
   H       -9.22129         7.89344        -1.44204
   H       -8.57467        10.72895        -1.66549
   H       -7.63516         9.58053        -0.95516
   H       -8.43729        11.64417         0.61282
   H       -6.07517        12.04143         1.30653
   H       -5.33756        11.46803         3.65865
   H       -5.99299         9.16558         4.21379
   H       -7.05655         6.80058         4.41045
   H       -8.35710         4.71766         4.15325
   H       -6.57635        13.86818         2.74084
   H       -9.23473        12.41526         3.08273
   H       -7.16461        15.39568         4.42601
   H      -11.09617        12.95766         2.12282
   H      -12.82745        13.25656         2.28653
   H      -11.10163        11.67767         4.27601
   H      -12.29821        11.00320         3.16264
   H      -12.81068        12.03610         4.49820
   H      -15.39172        16.80564         4.74251
   H      -14.65070        13.26750         3.68076
   H      -19.76639        12.41400         2.65698
   H      -19.11417        17.31985         1.86038
   H      -23.93875        15.06258         1.67508
   H      -22.47672        12.96804         2.21867
*
