# ORCA input file
# SCF done       -224.490134559491          0.000594778061
! CAM-B3LYP def2-SVP def2/J RIJCOSX Grid4 TightSCF
%maxcore 5000
%tddft
    Mode sTDDFT
    Ethresh 5.0
    maxcore 5000
end

%pal
  nprocs 6
  end
* xyz 0 1
   C        3.86338         7.86962         8.74466
   C        3.49962         8.76069         9.75531
   N        3.20993         9.48929        10.59317
   C        3.04403         6.96936         8.09811
   F        1.74357         6.82601         8.35937
   C        3.72793         6.21548         7.13372
   F        3.14711         5.27211         6.38271
   C        5.06987         6.53125         7.03694
   S        5.49674         7.79382         8.14644
   C        5.97327         5.92505         6.17249
   C        6.73097         5.33886         5.43139
   C        7.55127         4.70128         4.48102
   C        8.95563         4.73753         4.57153
   C        9.64309         5.32095         5.74096
   O       10.69398         5.92151         5.65915
   C        8.95812         5.07413         7.03709
   C        8.52012         3.84738         7.44209
   S        7.76599         3.89426         8.97995
   C        7.99475         5.59646         9.07343
   C        8.66211         6.08855         7.99743
   C        8.90795         7.53348         7.72454
   O        7.97660         8.27038         7.46098
   C       10.30759         7.97773         7.76024
   C       11.31048         7.18382         8.31703
   C       12.61548         7.63363         8.33120
   C       12.93268         8.86957         7.78849
   C       11.94031         9.66576         7.23776
   C       10.63223         9.22586         7.22693
   C        9.71172         4.22029         3.52324
   C        9.10472         3.62102         2.43998
   C        7.71166         3.52924         2.36394
   C        6.94892         4.08786         3.38515
   C        7.05704         2.87425         1.22740
   C        7.49883         3.08545        -0.05139
   C        6.83374         2.47712        -1.13966
   C        7.05124         2.55227        -2.50721
   C        8.14510         3.30936        -3.18975
   C        9.23812         2.32697        -3.64834
   N       10.29456         3.02619        -4.36854
   C        7.64549         4.20844        -4.34471
   N        7.64698         3.52990        -5.63255
   C        6.04629         1.73215        -3.13268
   C        5.79005         1.47940        -4.43342
   C        4.62557         0.64904        -4.83087
   C        3.91044        -0.02331        -3.71052
   C        4.17515         0.24745        -2.41730
   C        5.21751         1.13904        -2.07703
   C        5.69960         1.60607        -0.86796
   C        5.28343         1.39454         0.46416
   C        5.93796         2.02032         1.47648
   C        4.96098        -0.25310        -5.98366
   C        5.13901        -1.56765        -5.89074
   C        5.37881        -2.41442        -7.05520
   C        4.70403        -2.17800        -8.26552
   C        3.59941        -1.18648        -8.35744
   O        3.52464        -0.35012        -9.23339
   C        2.54407        -1.33866        -7.33451
   C        2.21785        -2.49988        -6.69061
   S        0.91822        -2.29853        -5.59819
   C        0.80308        -0.62304        -5.99136
   C        1.70388        -0.25362        -6.93517
   C        1.89637         1.13745        -7.45057
   O        2.61635         1.91581        -6.85894
   C        1.17007         1.48130        -8.68267
   C        0.29711         0.58653        -9.30097
   C       -0.35634         0.95222       -10.46142
   C       -0.14670         2.20627       -11.01490
   C        0.72004         3.10072       -10.40602
   C        1.37562         2.74161        -9.24588
   C        5.02782        -2.91265        -9.40299
   C        5.96896        -3.91778        -9.34738
   C        6.60795        -4.19788        -8.13401
   C        6.31128        -3.44252        -6.99948
   C        7.56066        -5.22910        -8.06131
   C        8.38875        -6.10974        -7.99041
   C        9.34020        -7.11694        -7.90011
   C       10.07863        -7.46833        -6.78747
   C       10.96750        -8.53136        -7.01955
   C       10.91738        -9.00509        -8.31417
   S        9.75499        -8.12195        -9.25564
   C       11.66557       -10.04682        -8.86663
   N       12.27841       -10.89975        -9.32749
   F       11.77496        -9.02949        -6.08628
   F        9.95671        -6.85396        -5.60801
   H        8.61976         2.91330         6.92520
   H        7.64488         6.13733         9.93024
   H       11.06428         6.22126         8.73994
   H       13.39193         7.01812         8.76052
   H       13.95714         9.21188         7.79365
   H       12.19065        10.62743         6.81519
   H        9.84263         9.82616         6.80007
   H       10.78798         4.27848         3.59365
   H        9.70777         3.19592         1.65182
   H        5.87086         4.07888         3.32121
   H        8.32997         3.75220        -0.23366
   H        8.59431         3.97769        -2.44626
   H        8.79931         1.59107        -4.32569
   H        9.60289         1.78851        -2.75723
   H       10.73291         3.71282        -3.76212
   H       11.01323         2.37030        -4.65651
   H        8.27320         5.11346        -4.36148
   H        6.61950         4.51881        -4.12491
   H        8.60968         3.31520        -5.87696
   H        7.27758         4.15409        -6.34248
   H        6.39252         1.92410        -5.21648
   H        3.90844         1.37829        -5.26465
   H        3.11965        -0.70456        -3.98829
   H        3.60654        -0.22258        -1.62721
   H        4.44508         0.74350         0.66542
   H        5.63623         1.86218         2.50160
   H        5.06303         0.24237        -6.94011
   H        5.13218        -2.05439        -4.92431
   H        2.66607        -3.46607        -6.81377
   H        0.06914        -0.01249        -5.50432
   H        0.13316        -0.39233        -8.87513
   H       -1.03062         0.25791       -10.94069
   H       -0.65887         2.48496       -11.92402
   H        0.88332         4.07591       -10.83989
   H        2.05839         3.41936        -8.75580
   H        4.51334        -2.69354       -10.32685
   H        6.21403        -4.49463       -10.22595
   H        6.82938        -3.64743        -6.07418
*
