# ORCA input file
# SCF done       -237.423321695645          0.000607933616
! CAM-B3LYP def2-SVP def2/J RIJCOSX Grid4 TightSCF
%maxcore 5000
%tddft
    Mode sTDDFT
    Ethresh 5.0
    maxcore 5000
end

%pal
  nprocs 6
  end
* xyz 0 1
   C       -2.96560        -6.02319        -1.61266
   C       -4.04835        -5.47261        -0.99143
   C       -5.25160        -6.17108        -0.73983
   N       -6.25261        -6.67472        -0.49391
   C       -4.19350        -4.15065        -0.52698
   N       -4.41665        -3.12455        -0.06345
   C       -2.91367        -7.39972        -2.10578
   C       -1.79046        -7.56537        -2.93612
   C       -1.50080        -8.77243        -3.54232
   C       -2.34074        -9.85109        -3.30025
   C       -3.45373        -9.70074        -2.46239
   C       -3.75023        -8.47932        -1.87057
  Cl       -4.47347       -11.04317        -2.14801
  Cl       -2.01068       -11.37135        -4.02299
   C       -1.04085        -6.30180        -2.99537
   O       -0.06542        -6.03591        -3.65738
   C       -1.72729        -5.38101        -2.03602
   C       -1.10739        -4.21558        -1.75871
   C       -1.41170        -3.20317        -0.76738
   C       -1.32630        -1.82663        -1.04842
   C       -0.86468        -1.27338        -2.35122
   O       -0.29172        -0.20549        -2.39845
   C       -1.05892        -2.10071        -3.56561
   C       -0.04744        -2.36867        -4.44413
   S       -0.53296        -3.41354        -5.71058
   C       -2.12697        -3.48026        -5.08654
   C       -2.28236        -2.72989        -3.95810
   C       -3.59209        -2.52758        -3.29578
   O       -4.34321        -3.46212        -3.08495
   C       -3.90441        -1.12993        -2.93372
   C       -4.86728        -0.88413        -1.95405
   C       -5.14700         0.40909        -1.55927
   C       -4.49584         1.47432        -2.16075
   C       -3.57781         1.24292        -3.17339
   C       -3.28020        -0.04910        -3.56086
   C       -1.58452        -0.91592        -0.02538
   C       -1.85848        -1.32631         1.26172
   C       -1.86616        -2.69036         1.56944
   C       -1.67138        -3.60778         0.53747
   C       -2.00776        -3.16792         2.92763
   C       -1.78497        -2.54403         4.12855
   C       -1.44737        -1.19653         4.62458
   O       -1.33019        -0.14696         4.04160
   N       -1.28906        -1.34698         5.99572
   C       -0.93890        -0.25330         6.86775
   C       -1.48657        -2.64277         6.45620
   O       -1.35599        -2.98485         7.60496
   C       -1.83340        -3.41685         5.25243
   C       -2.15523        -4.70985         4.95158
   S       -2.38011        -4.85588         3.22686
   C       -2.19081        -5.88657         5.80069
   C       -3.09935        -6.92721         5.56822
   C       -4.29055        -6.72522         4.68075
   O       -5.14784        -5.93433         5.00751
   C       -4.35326        -7.56405         3.48015
   C       -3.28517        -8.27587         2.99583
   S       -3.67165        -9.16370         1.59024
   C       -5.30662        -8.61803         1.65674
   C       -5.52698        -7.75667         2.68091
   C       -6.87943        -7.17624         2.95911
   O       -7.81484        -7.90838         3.19190
   C       -6.98620        -5.70605         2.92461
   C       -8.15490        -5.12381         3.41464
   C       -8.29331        -3.75058         3.43876
   C       -7.26657        -2.94529         2.97280
   C       -6.10632        -3.51572         2.47228
   C       -5.96710        -4.88848         2.43976
   C       -3.02539        -8.08673         6.33179
   C       -2.08115        -8.20838         7.32941
   C       -1.17614        -7.16907         7.58520
   C       -1.24993        -6.00957         6.81696
   C       -0.25069        -7.32568         8.68503
   C        0.98262        -6.79419         8.85465
   C        1.79152        -6.92978        10.06749
   C        1.50278        -7.67275        11.17728
   C        2.34120        -7.75794        12.31275
   N        2.97088        -7.87633        13.26410
   C        0.36760        -8.49348        11.36546
   N       -0.50660        -9.19773        11.60578
   C        3.00034        -6.13541         9.88043
   C        3.00816        -5.61262         8.57610
   C        1.78930        -6.03147         7.85653
   O        1.55253        -5.84280         6.68553
   C        4.04544        -4.82905         8.11006
   C        5.09781        -4.54761         8.97067
   C        5.09568        -5.05764        10.27624
   C        4.05386        -5.85324        10.73748
  Cl        6.40053        -4.70031        11.33112
  Cl        6.40207        -3.57084         8.43476
   H       -0.63822        -8.87241        -4.18208
   H       -4.61896        -8.40353        -1.23977
   H       -0.19417        -4.05940        -2.32676
   H        0.96840        -2.03159        -4.37886
   H       -2.88786        -4.03433        -5.60005
   H       -5.36895        -1.72219        -1.49676
   H       -5.87803         0.58678        -0.78529
   H       -4.71299         2.48611        -1.85198
   H       -3.08855         2.07220        -3.66120
   H       -2.58212        -0.21121        -4.36826
   H       -1.54319         0.13641        -0.26314
   H       -2.02970        -0.59622         2.03525
   H       -1.66496        -4.66569         0.76356
   H       -0.90973         0.65446         6.26784
   H        0.03730        -0.43197         7.32081
   H       -1.68231        -0.15824         7.65949
   H       -2.28918        -8.30858         3.39292
   H       -6.01614        -8.94825         0.92467
   H       -8.93601        -5.77162         3.78336
   H       -9.19794        -3.30527         3.82578
   H       -7.36771        -1.87015         2.99890
   H       -5.31242        -2.88682         2.09721
   H       -5.06203        -5.32616         2.04118
   H       -3.73780        -8.87949         6.15803
   H       -2.03747        -9.11047         7.92136
   H       -0.59600        -5.18138         7.02207
   H       -0.62716        -7.96766         9.47211
   H        4.03232        -4.44404         7.10259
   H        4.08935        -6.22728        11.74726
*
