# ORCA input file
# SCF done       -279.834732803074          0.000639204291
! CAM-B3LYP def2-SVP def2/J RIJCOSX Grid4 TightSCF
%maxcore 5000
%tddft
    Mode sTDDFT
    Ethresh 5.0
    maxcore 5000
end

%pal
  nprocs 6
  end
* xyz 0 1
   C        2.18400        -3.65694        -2.27289
   C        3.02446        -4.14925        -1.18950
   C        3.03688        -3.57949         0.08595
   C        3.85052        -4.07289         1.09612
   C        4.67581        -5.16861         0.85142
   C        4.66271        -5.77190        -0.40273
   C        3.83607        -5.26568        -1.39833
   F        3.82844        -5.85309        -2.59813
   F        5.43271        -6.83356        -0.64081
   F        5.45825        -5.64556         1.81629
   F        3.83638        -3.50867         2.30413
   F        2.21878        -2.56051         0.36595
   C        2.04032        -2.35736        -2.60144
   C        1.10691        -1.94511        -3.66525
   C       -0.19148        -2.45403        -3.73875
   C       -1.10331        -2.00221        -4.68714
   C       -0.72215        -1.02835        -5.60566
   C        0.57633        -0.52646        -5.57324
   C        1.47218        -0.98604        -4.61477
   F        2.71208        -0.49624        -4.61852
   F        0.95282         0.39694        -6.45605
   F       -1.59323        -0.57967        -6.50619
   F       -2.34456        -2.48843        -4.70751
   F       -0.59947        -3.36341        -2.84889
   C        2.83319        -1.30762        -1.97906
   N        4.07489        -1.53495        -1.60921
   C        4.53887        -0.34991        -1.13934
   C        3.51956         0.69633        -1.24497
   C        4.03817         1.97368        -0.73338
   O        3.49150         3.05472        -0.69797
   C        5.39906         1.61108        -0.28382
   C        5.66235         0.18121        -0.55879
   N        6.89953        -0.17009        -0.12805
   C        7.40423         0.92203         0.38833
   C        6.51652         2.07120         0.33069
   C        2.39745         0.08498        -1.75299
   C        1.08754         0.58256        -2.00380
   C        0.78979         1.89985        -2.06189
   C       -0.49549         2.45974        -2.37833
   C       -0.63444         3.83664        -2.37101
   C       -1.86671         4.42639        -2.69295
   C       -2.25573         5.76626        -2.75027
   C       -1.39713         6.94227        -2.44913
   C       -1.28488         7.89303        -3.66084
   N       -0.02864         8.60223        -3.58303
   C       -1.89308         7.67784        -1.18900
   N       -0.94321         8.70779        -0.79893
   C       -3.64340         5.78230        -3.13933
   C       -4.50798         6.79365        -3.36212
   C       -5.93035         6.52484        -3.68135
   C       -6.25976         5.10219        -3.99922
   C       -5.38121         4.09748        -3.76951
   C       -4.07929         4.38641        -3.32400
   C       -2.98890         3.57614        -3.04497
   C       -2.82731         2.17539        -3.04840
   C       -1.62014         1.64254        -2.72280
   C       -6.74995         6.61262        -2.41906
   C       -8.02865         7.03288        -2.38030
   C       -8.78239         7.01407        -1.17515
   N       -8.28813         6.54478        -0.02929
   C       -9.28975         6.59987         0.86042
   C      -10.51917         7.11488         0.23498
   C      -11.61954         7.19622         1.20435
   O      -12.75412         7.58723         1.00536
   C      -10.98820         6.70862         2.43619
   C       -9.57268         6.35009         2.18614
   N       -8.98395         5.91752         3.32236
   C       -9.91835         5.99167         4.24491
   C      -11.18754         6.48272         3.76302
   C      -10.19563         7.41784        -1.05569
   C      -11.09136         8.01188        -2.00639
   C      -10.79076         8.95589        -2.90629
   C      -11.82273         9.58787        -3.72212
   C      -11.48868         9.83197        -5.13488
   C      -11.95376        10.95267        -5.83117
   C      -11.61388        11.19345        -7.15797
   C      -10.78402        10.30649        -7.83768
   C      -10.29953         9.18726        -7.16877
   C      -10.64998         8.96580        -5.84257
   F      -10.16152         7.86761        -5.25077
   F       -9.49357         8.32731        -7.79523
   F      -10.45241        10.52910        -9.10672
   F      -12.07698        12.27805        -7.77781
   F      -12.72416        11.85277        -5.21590
   C      -13.04009         9.90744        -3.23437
   C      -13.43472         9.87641        -1.82916
   C      -12.63622        10.38176        -0.79874
   C      -13.06372        10.39485         0.52051
   C      -14.32171         9.89842         0.85301
   C      -15.14456         9.40215        -0.15322
   C      -14.70039         9.40720        -1.46901
   F      -15.50220         8.92918        -2.42910
   F      -16.35882         8.93910         0.14213
   F      -14.73866         9.92017         2.11366
   F      -12.26940        10.89030         1.47146
   F      -11.43496        10.90164        -1.08494
   H        1.68230        -4.41978        -2.85243
   H        8.39694         0.91896         0.80374
   H        6.74209         3.05027         0.70460
   H        0.31816        -0.16188        -2.14991
   H        1.58290         2.61218        -1.87604
   H        0.21411         4.45323        -2.11421
   H       -0.38089         6.59032        -2.24806
   H       -2.16393         8.55724        -3.68475
   H       -1.28564         7.30027        -4.58197
   H       -0.01216         9.15838        -2.73325
   H        0.10343         9.20795        -4.38390
   H       -2.06827         6.92751        -0.39921
   H       -2.84809         8.16813        -1.39529
   H       -0.06942         8.28014        -0.50738
   H       -1.30343         9.23722        -0.01220
   H       -4.22480         7.82991        -3.25580
   H       -6.31474         7.21786        -4.43422
   H       -7.25766         4.90980        -4.35849
   H       -5.65785         3.07194        -3.96452
   H       -3.66137         1.54036        -3.30710
   H       -1.50245         0.56979        -2.72298
   H       -6.29047         6.24554        -1.51344
   H       -8.53052         7.37456        -3.27378
   H       -9.70261         5.69758         5.25740
   H      -12.07032         6.62343         4.35459
   H      -12.12333         7.70494        -1.88823
   H       -9.77390         9.29247        -3.04971
   H      -13.82858        10.21558        -3.90661
*
