# ORCA input file
# SCF done       -211.673481701883          0.000771505283
! CAM-B3LYP def2-SVP def2/J RIJCOSX Grid4 TightSCF
%maxcore 5000
%tddft
    Mode sTDDFT
    Ethresh 5.0
    maxcore 5000
end

%pal
  nprocs 6
  end
* xyz 0 1
   C        7.36460         6.85314         3.88969
   C        8.52915         6.92044         4.60602
   C        9.05938         5.84813         5.35483
   N        9.53891         5.01759         5.98540
   C        9.33433         8.07223         4.73103
   N       10.02969         8.97408         4.87803
   C        6.49314         5.69029         3.77922
   C        5.30124         6.06755         3.09544
   C        4.30092         5.17362         2.84453
   C        4.45624         3.83237         3.25851
   C        5.64648         3.44592         3.94048
   C        6.66051         4.39549         4.19653
   C        5.78938         2.10425         4.35083
   C        4.80678         1.18663         4.09875
   C        3.63624         1.56752         3.42501
   C        3.46489         2.86143         3.01442
   C        5.36750         7.49918         2.75684
   O        4.45473         8.22185         2.42390
   C        6.76527         7.91635         3.09856
   C        7.33555         9.08180         2.70792
   C        6.79529         9.93154         1.69918
   C        6.94590        11.38776         1.62752
   N        6.41126        11.92806         0.57041
   C        5.89600        10.89358        -0.15004
   C        6.11652         9.61670         0.54467
   C        5.66867         8.52192        -0.27981
   S        5.96624         6.92418        -0.00307
   C        5.07337         9.15185        -1.43040
   C        5.26072        10.61404        -1.33234
   N        4.75783        11.24121        -2.42986
   C        4.30023        10.29005        -3.19170
   C        4.45312         8.93944        -2.64538
   C        3.95990         7.74790        -3.27916
   C        3.74910         7.73162        -4.64613
   C        3.23353         6.58665        -5.28103
   C        2.90807         6.30637        -6.61027
   C        3.14196         7.02082        -7.89799
   C        3.79442         8.40671        -7.81813
   N        5.20446         8.31096        -7.48238
   C        3.99307         6.16044        -8.87563
   N        3.75001         6.60777       -10.23117
   C        2.22243         5.02812        -6.59482
   C        1.53973         4.38671        -7.56129
   C        0.84953         3.09047        -7.30274
   C        1.02407         2.55887        -5.91957
   C        1.66656         3.23927        -4.95143
   C        2.25398         4.49607        -5.23181
   C        2.86086         5.45245        -4.43990
   C        3.11035         5.48613        -3.05043
   C        3.65746         6.59520        -2.49055
   C        1.21561         2.12726        -8.40544
   C        1.75323         0.91850        -8.22981
   C        2.06298         0.01906        -9.30248
   C        2.14981         0.31423       -10.73441
   N        2.44776        -0.71174       -11.48151
   C        2.57098        -1.76356       -10.62495
   C        2.33657        -1.32471        -9.23487
   C        2.44908        -2.44440        -8.33737
   S        2.39300        -2.42388        -6.69311
   C        2.70899        -3.56519        -9.20314
   C        2.82151        -3.11055       -10.60307
   N        3.14410        -4.15238       -11.41828
   C        3.26001        -5.18814       -10.63791
   C        2.97957        -4.91295        -9.22602
   C        3.06302        -5.84858        -8.15317
   C        2.26139        -5.81371        -7.06062
   C        2.42623        -6.53573        -5.80876
   C        3.34644        -7.51378        -5.54135
   C        3.46375        -8.17265        -4.29868
   N        3.61276        -8.74755        -3.31668
   C        4.28099        -8.02326        -6.46729
   N        5.06024        -8.48762        -7.17124
   C        1.43731        -6.01585        -4.87282
   C        0.59017        -5.09670        -5.55646
   C        0.99940        -5.01192        -6.96737
   O        0.37394        -4.53079        -7.88599
   C       -0.43469        -4.45339        -4.92495
   C       -0.65689        -4.69451        -3.55123
   C        0.18654        -5.61137        -2.85905
   C        1.23522        -6.26827        -3.54068
   C       -0.04883        -5.84974        -1.48913
   C       -1.06685        -5.21396        -0.83277
   C       -1.89567        -4.30999        -1.51477
   C       -1.69463        -4.05554        -2.84414
   H        3.40585         5.48441         2.32639
   H        7.55136         4.07220         4.71152
   H        6.69213         1.81652         4.86940
   H        4.92547         0.16166         4.41673
   H        2.87118         0.82976         3.23370
   H        2.56512         3.16062         2.49661
   H        8.28367         9.39470         3.12724
   H        7.42672        11.99381         2.37548
   H        3.81471        10.53933        -4.11935
   H        3.97400         8.61863        -5.21211
   H        2.16075         7.15496        -8.37369
   H        3.20323         9.04537        -7.13959
   H        3.74091         8.84359        -8.81868
   H        5.34766         7.87624        -6.57813
   H        5.63244         9.22864        -7.47270
   H        3.77996         5.09199        -8.71926
   H        5.04091         6.34573        -8.63636
   H        2.89174         6.22099       -10.60688
   H        4.51325         6.36157       -10.84677
   H        1.43667         4.79452        -8.55732
   H       -0.23102         3.28653        -7.43866
   H        0.56010         1.60665        -5.71425
   H        1.73755         2.83865        -3.95123
   H        2.85115         4.63105        -2.44467
   H        3.84467         6.63892        -1.43034
   H        0.99816         2.48697        -9.40228
   H        1.95478         0.53827        -7.23785
   H        2.00122         1.27956       -11.18584
   H        3.51404        -6.15478       -11.03706
   H        3.84798        -6.58996        -8.23517
   H       -1.06356        -3.76275        -5.46687
   H        1.85624        -6.95597        -2.98881
   H        0.59156        -6.54698        -0.96903
   H       -1.24004        -5.40408         0.21588
   H       -2.69506        -3.81767        -0.98116
   H       -2.33077        -3.36203        -3.37470
*
