# ORCA input file
# SCF done       -213.600951617478          0.000876623335
! CAM-B3LYP def2-SVP def2/J RIJCOSX Grid4 TightSCF
%maxcore 5000
%tddft
    Mode sTDDFT
    Ethresh 5.0
    maxcore 5000
end

%pal
  nprocs 6
  end
* xyz 0 1
   C       -3.67006         4.67459       -15.64784
   S       -2.53961         3.39253       -15.61346
   C       -2.41135         3.49001       -13.89305
   C       -3.23504         4.49415       -13.38358
   C       -3.95875         5.17838       -14.40418
   O       -4.83587         6.19572       -14.28805
   C       -5.11472         6.71262       -13.00536
   C       -3.28044         4.73388       -12.00136
   N       -3.29139         4.88544       -10.86286
   C       -1.55364         2.65356       -13.12569
   C       -0.76349         1.70008       -13.65556
   C        0.11440         0.84959       -12.89331
   C        0.82937         1.27260       -11.76071
   C        0.98225         2.61930       -11.16444
   O        0.54725         3.68631       -11.51480
   N        1.83000         2.45902       -10.05545
   C        2.28057         1.14838        -9.91873
   O        3.02693         0.73149        -9.07110
   C        1.65203         0.40273       -11.03626
   C        1.82898        -0.92227       -11.38517
   C        1.15696        -1.34716       -12.52452
   C        0.32995        -0.49827       -13.26298
   C       -0.30413        -1.14737       -14.41998
   O       -1.07270        -0.68655       -15.21279
   S        0.24952        -2.86149       -14.51312
   C        1.26454        -2.72382       -13.04274
   O        1.90659        -3.62386       -12.59118
   C        2.11490         3.54886        -9.23723
   C        2.96876         3.54379        -8.20859
   C        3.23780         4.67802        -7.35025
   C        4.33216         4.62469        -6.51280
   C        4.63636         5.70066        -5.65610
   C        5.66423         5.90789        -4.73626
   C        6.81383         5.04265        -4.37217
   C        6.40546         3.98053        -3.29724
   N        5.35353         3.07144        -3.65065
   C        7.49821         4.36955        -5.57217
   N        8.84385         3.96859        -5.19581
   C        5.42333         7.19701        -4.12669
   C        6.07596         7.85154        -3.14672
   C        5.67944         9.22834        -2.74183
   C        4.45326         9.75655        -3.41258
   C        3.78249         9.06385        -4.35409
   C        4.23024         7.78133        -4.74474
   C        3.75624         6.85987        -5.66508
   C        2.63886         6.88797        -6.52436
   C        2.39218         5.82970        -7.34173
   C        6.86692        10.09492        -3.08849
   C        7.47627        10.91663        -2.24444
   C        8.68596        11.64332        -2.61327
   C        9.80197        10.98637        -3.13238
   C       10.04122         9.53785        -3.32627
   O        9.29797         8.60706        -3.11901
   N       11.34474         9.43380        -3.80801
   C       11.96277        10.68470        -3.96070
   O       13.07431        10.85221        -4.38813
   C       10.97172        11.67397        -3.48766
   C       11.09225        13.04349        -3.34722
   C        9.99240        13.70697        -2.81327
   C        8.82272        13.03000        -2.45063
   C        7.75924        13.89091        -1.92043
   O        6.66219        13.57364        -1.55947
   S        8.35110        15.59000        -1.88927
   C        9.95589        15.15960        -2.58234
   O       10.81504        15.96055        -2.80006
   C       12.01819         8.25874        -4.13280
   C       11.61640         7.02785        -3.79149
   C       12.30643         5.83054        -4.14578
   S       13.69098         5.78523        -5.18738
   C       13.80501         4.06386        -5.07504
   C       12.80646         3.54567        -4.25305
   C       11.95699         4.55683        -3.71659
   O       10.91683         4.44098        -2.86809
   C       10.46802         3.16354        -2.46922
   C       12.67130         2.16938        -4.01086
   N       12.56500         1.04070        -3.82510
   C       14.86606         3.42457        -5.80317
   C       15.14711         2.12263        -5.84294
   H       -4.08255         5.01440       -16.57575
   H       -5.83058         7.51677       -13.16661
   H       -4.21570         7.11465       -12.53026
   H       -5.55901         5.95480       -12.35426
   H       -1.58526         2.82008       -12.05814
   H       -0.82140         1.49999       -14.71716
   H        2.46152        -1.58837       -10.82098
   H        1.56061         4.42390        -9.54807
   H        3.52194         2.64307        -7.98661
   H        4.95851         3.74656        -6.52836
   H        7.56894         5.67271        -3.88985
   H        6.09320         4.51720        -2.39701
   H        7.29924         3.39570        -3.07209
   H        4.49936         3.55775        -3.89667
   H        5.62007         2.46220        -4.41347
   H        7.47388         5.06363        -6.42955
   H        6.96911         3.45949        -5.86491
   H        9.39284         4.78604        -4.94873
   H        9.30404         3.50684        -5.97314
   H        6.95615         7.45148        -2.66469
   H        5.54093         9.27030        -1.65372
   H        4.14030        10.74302        -3.10736
   H        2.89854         9.47613        -4.81810
   H        1.98552         7.74770        -6.51964
   H        1.52790         5.84425        -7.98572
   H        7.21462         9.99458        -4.10703
   H        7.09420        11.09061        -1.24808
   H       11.98922        13.57490        -3.62220
   H       12.93340         8.44203        -4.68093
   H       10.71903         6.87719        -3.21064
   H        9.64472         3.35369        -1.78259
   H       11.25165         2.60564        -1.95151
   H       10.10292         2.59162        -3.32537
   H       15.48157         4.11915        -6.36189
   H       14.57780         1.38623        -5.30597
   H       15.97756         1.76204        -6.42369
*
