# ORCA input file
# SCF done       -187.691550689223          0.000839220687
! CAM-B3LYP def2-SVP def2/J RIJCOSX Grid4 TightSCF
%maxcore 5000
%tddft
    Mode sTDDFT
    Ethresh 5.0
    maxcore 5000
end

%pal
  nprocs 6
  end
* xyz 0 1
   C       -0.74645        -7.17244         4.85101
   S        0.09873        -8.41588         4.04017
   C        1.03925        -7.24098         3.05982
   S        2.18050        -7.73563         1.93753
   C        0.64005        -5.98358         3.41399
   C       -0.35771        -5.92276         4.41952
   C       -0.76230        -4.60545         4.78111
   C       -0.12094        -3.59939         4.13090
   S        1.08743        -4.32000         2.96990
   O        2.43968        -4.03567         3.37395
   O        0.73839        -4.00219         1.61376
   C       -0.42434        -2.22645         4.30558
   N       -1.44000        -1.87623         5.09105
   C       -1.51287        -0.53476         5.02714
   C       -0.47727         0.01722         4.14307
   C       -0.56079         1.48984         4.10751
   O        0.15596         2.27317         3.52438
   C       -1.71382         1.76683         4.98182
   C       -2.25954         0.50577         5.52930
   N       -3.31345         0.75408         6.34233
   C       -3.45622         2.05818         6.32918
   C       -2.48976         2.75212         5.50158
   C        0.23747        -1.05941         3.67497
   C        1.35739        -1.11384         2.80170
   C        1.81283        -0.03480         2.12240
   C        2.92254        -0.03432         1.21248
   C        3.25236         1.16393         0.59008
   C        4.31036         1.21032        -0.32346
   C        4.80718         2.27303        -1.09106
   C        4.26187         3.64042        -1.08476
   C        5.27509         4.65048        -0.44044
   N        4.68943         5.91337        -0.12641
   C        3.81656         4.14990        -2.46915
   N        2.96070         5.30540        -2.28821
   C        5.89979         1.74307        -1.87595
   C        6.73815         2.31787        -2.76149
   C        7.70534         1.51234        -3.55638
   C        7.82104         0.08052        -3.13484
   C        7.00548        -0.47185        -2.21308
   C        6.02023         0.31070        -1.57147
   C        5.05555         0.00247        -0.61968
   C        4.70970        -1.20150         0.02817
   C        3.67670        -1.21374         0.91739
   C        7.25335         1.47306        -5.00303
   C        5.95900         1.54573        -5.33521
   C        5.45624         1.57444        -6.67350
   N        6.20902         1.41440        -7.74430
   C        5.38892         1.61151        -8.80330
   C        4.02801         1.94337        -8.37232
   C        3.15883         2.18991        -9.53228
   O        1.99392         2.52450        -9.54163
   C        4.06984         1.95219       -10.66953
   C        5.42164         1.60821       -10.17822
   N        6.26631         1.38998       -11.21484
   C        5.54023         1.56824       -12.29183
   C        4.15864         1.91865       -12.02347
   C        4.04477         1.89922        -6.99788
   C        3.04617         2.14644        -6.02703
   C        1.83341         2.71381        -6.26819
   C        0.94618         3.04596        -5.21790
   S       -0.14521         4.40371        -5.38872
   C       -0.58129         4.37756        -3.65924
   S       -1.58928         5.50534        -2.96048
   C        0.05948         3.30701        -3.07032
   C        0.88532         2.55110        -3.90930
   C        1.43849         1.36811        -3.27954
   C        1.16841         1.24670        -1.98176
   S        0.21327         2.66270        -1.41117
   O        1.08110         3.54378        -0.66342
   O       -1.01877         2.26614        -0.80852
   H       -1.47871        -7.41454         5.59627
   H       -1.52752        -4.41354         5.51720
   H       -4.23920         2.52361         6.90243
   H       -2.43784         3.81308         5.35824
   H        1.83998        -2.06845         2.70002
   H        1.31281         0.91677         2.25071
   H        2.67449         2.05023         0.80762
   H        3.36407         3.64677        -0.45867
   H        6.10073         4.81446        -1.13771
   H        5.67537         4.20525         0.47364
   H        4.21061         6.29848        -0.93745
   H        4.02720         5.84405         0.63695
   H        3.30998         3.31911        -2.98996
   H        4.67471         4.45544        -3.07543
   H        2.14746         5.04210        -1.73513
   H        2.64362         5.67448        -3.17718
   H        6.69761         3.37252        -2.99057
   H        8.69358         1.98836        -3.52652
   H        8.56850        -0.50646        -3.64477
   H        7.10084        -1.51440        -1.94875
   H        5.26207        -2.10403        -0.18489
   H        3.41465        -2.13702         1.40898
   H        8.00598         1.35505        -5.76728
   H        5.22456         1.64703        -4.54825
   H        5.97956         1.45592       -13.26778
   H        3.40735         2.10407       -12.76535
   H        3.31154         1.93216        -5.00170
   H        1.56989         3.01958        -7.27181
   H        1.97515         0.63042        -3.85671
   H        1.43671         0.44402        -1.32553
*
