# ORCA input file
# SCF done       -192.339535887794          0.000441596088
! CAM-B3LYP def2-SVP def2/J RIJCOSX Grid4 TightSCF
%maxcore 5000
%tddft
    Mode sTDDFT
    Ethresh 5.0
    maxcore 5000
end

%pal
  nprocs 6
  end
* xyz 0 1
   C       -5.60320         3.73245        -0.06151
   C       -5.35801         4.23531        -1.31069
   C       -5.97644         5.39309        -1.82966
   N       -6.46674         6.32056        -2.29274
   C       -4.36716         3.70554        -2.15580
   N       -3.51951         3.33775        -2.83889
   C       -6.41137         4.33061         0.98444
   C       -6.06965         3.72509         2.22462
   C       -6.65642         4.10167         3.40781
   C       -7.63312         5.10238         3.36367
   C       -7.97020         5.69436         2.11931
   C       -7.36832         5.32728         0.92323
   S       -9.20116         6.90160         2.30967
   C       -9.25269         6.61442         4.01304
   C       -8.39181         5.65923         4.42997
   C       -5.01388         2.71347         2.00339
   O       -4.26847         2.23258         2.81351
   C       -4.99689         2.53698         0.51066
   C       -4.66663         1.41912        -0.16828
   C       -4.29480         0.17156         0.43778
   N       -4.83746        -0.22690         1.56783
   C       -4.36104        -1.47571         1.79469
   C       -3.48998        -1.90805         0.70434
   C       -2.97734        -3.26333         0.94748
   O       -2.25091        -3.93561         0.25035
   C       -3.57782        -3.59589         2.25987
   C       -4.42496        -2.47771         2.73219
   N       -4.96763        -2.76659         3.94148
   C       -4.51201        -3.95520         4.24578
   C       -3.62889        -4.52752         3.24300
   C       -3.41392        -0.85480        -0.17727
   C       -2.69759        -0.80186        -1.39925
   C       -2.40086         0.32459        -2.09485
   C       -1.75560         0.36227        -3.35431
   N       -1.54397         1.56673        -3.98299
   C       -0.95433         1.32707        -5.17950
   C       -0.44342         1.92718        -6.31698
   C        0.01722         0.88072        -7.14125
   N       -0.20367        -0.32911        -6.50889
   C       -0.77562        -0.08627        -5.30267
   C       -1.26958        -0.68797        -4.15708
   C        0.57787         1.01422        -8.42321
   C        0.77733         0.00859        -9.32701
   C        1.33513         0.26696       -10.59515
   N        1.99199         1.40225       -10.85645
   C        2.42097         1.30725       -12.11969
   C        2.02661         0.02328       -12.71673
   C        2.41838        -0.05344       -14.13300
   O        2.19033        -0.95077       -14.91951
   C        3.10834         1.22682       -14.33361
   C        3.09118         2.02674       -13.08931
   N        3.69717         3.21781       -13.28007
   C        4.07558         3.21379       -14.54106
   C        3.73228         2.01014       -15.25626
   C        1.31189        -0.64463       -11.76072
   C        0.58228        -1.83877       -12.03691
   C       -0.56240        -2.26554       -11.46771
   C       -1.32640        -3.33212       -12.04584
   C       -1.46242        -3.56630       -13.37163
   C       -1.08730        -2.77308       -14.53659
   C       -1.09540        -1.40982       -14.64179
   C       -0.85962        -0.71011       -15.84471
   N       -0.69460        -0.08305       -16.79106
   C       -1.43126        -0.53465       -13.58857
   N       -1.74639         0.22585       -12.78808
   C       -0.98407        -3.69514       -15.65777
   C       -1.54886        -4.94207       -15.27972
   C       -1.95730        -4.88555       -13.86567
   O       -2.52079        -5.73333       -13.21229
   C       -1.64434        -5.99707       -16.15661
   C       -1.15021        -5.81692       -17.45170
   C       -0.56239        -4.57721       -17.80625
   C       -0.47118        -3.50616       -16.92597
   S       -0.00443        -4.59321       -19.44842
   C       -0.55891        -6.21978       -19.64706
   C       -1.13181        -6.73662       -18.53833
   H       -6.37555         3.63390         4.33826
   H       -7.65472         5.79797        -0.00328
   H       -9.93713         7.18701         4.60844
   H       -8.28732         5.34831         5.45345
   H       -4.75954         1.40654        -1.24826
   H       -4.80048        -4.42903         5.16804
   H       -3.15062        -5.48476         3.30851
   H       -2.36117        -1.76174        -1.76714
   H       -2.65756         1.29133        -1.68291
   H       -1.93417         2.43992        -3.65215
   H       -0.40933         2.96762        -6.56870
   H        0.09185        -1.22228        -6.86224
   H       -1.29000        -1.72915        -3.90821
   H        0.83165         2.01489        -8.74253
   H        0.47967        -1.00769        -9.11154
   H        4.59276         4.06337       -14.95228
   H        3.94088         1.81336       -16.28916
   H        0.94753        -2.37140       -12.90855
   H       -0.95429        -1.80752       -10.57084
   H       -1.81944        -4.03133       -11.37876
   H       -2.08708        -6.93271       -15.85190
   H       -0.00129        -2.58336       -17.22390
   H       -0.41822        -6.69673       -20.59757
   H       -1.53286        -7.73202       -18.47538
*
