# ORCA input file
# SCF done       -209.300620191211          0.000658093160
! CAM-B3LYP def2-SVP def2/J RIJCOSX Grid4 TightSCF
%maxcore 5000
%tddft
    Mode sTDDFT
    Ethresh 5.0
    maxcore 5000
end

%pal
  nprocs 6
  end
* xyz 0 1
   C       17.27264        -0.58112       -10.34911
   C       17.46943        -0.89494       -11.66500
   F       18.51192        -0.35978       -12.32467
   C       16.62007        -1.76234       -12.36594
   C       15.55439        -2.31598       -11.71278
   C       15.30389        -2.02735       -10.35542
   C       16.17930        -1.14195        -9.66046
   C       15.94631        -0.83307        -8.30074
   C       14.87658        -1.39697        -7.65832
   C       14.01270        -2.29363        -8.35310
   C       14.20985        -2.60002        -9.66915
   C       12.97733        -2.79253        -7.42705
   O       12.01449        -3.47297        -7.68739
   C       13.39242        -2.28875        -6.08136
   C       14.37932        -1.24173        -6.29681
   C       14.63187        -0.17692        -5.47659
   C       13.89559         0.11042        -4.30982
   N       13.28760         0.44067        -3.39330
   C       15.57144         0.83340        -5.77584
   N       16.33181         1.67108        -5.96719
   C       12.99822        -2.92051        -4.96281
   C       13.54736        -2.79553        -3.59491
   S       14.14653        -4.46983        -3.11463
   C       12.92180        -4.61472        -1.77545
   N       11.85651        -3.70630        -2.12216
   C       12.43641        -2.46706        -2.60154
   N       12.88068        -1.80012        -1.38569
   C       11.79661        -2.02033        -0.43083
   C       11.04135        -3.26762        -0.99261
   C        9.66472        -2.90132        -1.49860
   C        9.35406        -3.07964        -2.81161
   C        8.13412        -2.58686        -3.32224
   C        7.69115        -2.50899        -4.63027
   C        8.51308        -2.91266        -5.80925
   C        7.73688        -3.60540        -6.93885
   N        8.57540        -4.63986        -7.51825
   C        9.29192        -1.69683        -6.35249
   N       10.23694        -1.21123        -5.35826
   C        6.41343        -1.83508        -4.58801
   C        5.56083        -1.46332        -5.55968
   C        4.29710        -0.73042        -5.26157
   C        4.06148        -0.45382        -3.81183
   C        4.92025        -0.83614        -2.84727
   C        6.11280        -1.51914        -3.17717
   C        7.17638        -1.97440        -2.41862
   C        7.49284        -1.89571        -1.04151
   C        8.70880        -2.32674        -0.60682
   C        3.13050        -1.50764        -5.82693
   C        2.48779        -1.16398        -6.93272
   C        1.29136        -1.85198        -7.49678
   S       -0.21364        -1.38261        -6.54024
   C       -0.55321        -3.16946        -6.13857
   N        0.02026        -3.93490        -7.17562
   C        1.34553        -3.40934        -7.49559
   N        1.67678        -3.90961        -8.80180
   C        0.41793        -4.10534        -9.51024
   C       -0.70143        -3.93427        -8.44200
   C       -1.79685        -4.92758        -8.55732
   C       -2.26297        -5.83154        -7.68064
   C       -3.65615        -6.35668        -7.86103
   O       -4.29846        -6.36054        -8.88285
   C       -4.07688        -6.77767        -6.51300
   C       -5.30903        -7.18770        -6.08955
   C       -5.49824        -7.51047        -4.72765
   C       -4.40013        -7.40108        -3.82405
   C       -4.59955        -7.71815        -2.46602
   C       -5.83546        -8.12441        -2.04581
   C       -6.92649        -8.23951        -2.91857
   C       -6.75131        -7.93513        -4.23974
   F       -6.02720        -8.42731        -0.74987
   C       -3.13243        -6.98454        -4.29079
   C       -2.97149        -6.68109        -5.61683
   C       -1.79595        -6.27633        -6.37584
   C       -0.49632        -6.50408        -6.02308
   C        0.57604        -6.43843        -6.93728
   N        1.47050        -6.53958        -7.65086
   C       -0.09905        -6.94423        -4.74416
   N        0.27523        -7.26792        -3.70846
   H       17.94530         0.09247        -9.84159
   H       16.82629        -1.97397       -13.40310
   H       14.88711        -2.98757       -12.23165
   H       16.62869        -0.16843        -7.79470
   H       13.54216        -3.27674       -10.18111
   H       12.24594        -3.69041        -5.08250
   H       14.38484        -2.10542        -3.51177
   H       13.43028        -4.36885        -0.83357
   H       12.55279        -5.64127        -1.74894
   H       11.65599        -1.89252        -3.13197
   H       13.07466        -0.81752        -1.54406
   H       11.11415        -1.16536        -0.35912
   H       12.22304        -2.21302         0.55722
   H       10.96911        -4.06317        -0.24534
   H       10.05116        -3.55926        -3.47700
   H        9.25552        -3.63534        -5.46079
   H        7.40026        -2.85386        -7.67606
   H        6.84860        -4.09764        -6.53012
   H        9.47155        -4.25861        -7.80436
   H        8.13155        -5.05125        -8.33155
   H        8.56856        -0.92629        -6.67387
   H        9.87344        -2.00867        -7.22460
   H        9.73440        -0.91897        -4.52531
   H       10.73754        -0.40325        -5.71326
   H        5.74728        -1.67881        -6.60202
   H        4.34035         0.22805        -5.80111
   H        3.14489         0.06570        -3.57695
   H        4.71369        -0.61766        -1.80922
   H        6.77719        -1.47445        -0.35050
   H        8.97094        -2.24654         0.43887
   H        2.85273        -2.37720        -5.24793
   H        2.78972        -0.27259        -7.46707
   H        1.12177        -1.51022        -8.51947
   H       -1.63007        -3.30337        -6.05567
   H       -0.06752        -3.38959        -5.18610
   H        2.06906        -3.74744        -6.74951
   H        2.16457        -4.79582        -8.70993
   H        0.37999        -5.09530        -9.96615
   H        0.31283        -3.35418       -10.29733
   H       -1.17540        -2.94652        -8.59225
   H       -2.39142        -4.80571        -9.45741
   H       -6.13078        -7.26234        -6.78592
   H       -3.78174        -7.64431        -1.76637
   H       -7.87811        -8.56488        -2.52929
   H       -7.57638        -8.01586        -4.93129
   H       -2.31881        -6.90421        -3.58706
*
