# ORCA input file
# SCF done       -204.453835762340          0.000376862597
! CAM-B3LYP def2-SVP def2/J RIJCOSX Grid4 TightSCF
%maxcore 5000
%tddft
    Mode sTDDFT
    Ethresh 5.0
    maxcore 5000
end

%pal
  nprocs 6
  end
* xyz 0 1
   C       15.72156        -5.45940         9.41050
   C       15.89423        -5.24154        10.74912
   F       17.09032        -5.49608        11.31276
   C       14.86766        -4.75733        11.57032
   C       13.64659        -4.49233        11.01478
   C       13.41351        -4.69781         9.63987
   C       14.47054        -5.19209         8.82199
   C       14.25937        -5.41054         7.43963
   C       13.03480        -5.13445         6.89739
   C       11.98539        -4.62815         7.71719
   C       12.15742        -4.41880         9.05424
   C       10.79431        -4.37516         6.88078
   O        9.70468        -3.98547         7.23746
   C       11.23583        -4.64115         5.48764
   C       12.52513        -5.27679         5.53454
   C       13.07599        -6.07538         4.56147
   C       12.39764        -6.41779         3.37759
   N       11.85738        -6.72346         2.41116
   C       14.33618        -6.69254         4.66699
   N       15.37041        -7.19194         4.68498
   C       10.47621        -4.16826         4.44974
   C       10.86576        -3.88419         3.13559
   S        9.66338        -3.41741         1.93498
   C       10.82190        -3.10054         0.67568
   C       12.09380        -3.34502         1.18238
   C       12.10894        -3.77484         2.52758
   O       13.40183        -3.91804         2.89751
   C       14.09797        -3.59802         1.77609
   N       13.39870        -3.25526         0.75476
   C       10.46272        -2.61864        -0.61706
   C       11.46150        -2.35418        -1.53400
   C       11.13244        -1.79868        -2.78127
   C       11.93187        -1.39127        -3.84264
   C       13.41131        -1.49117        -3.98544
   C       14.13808        -0.62758        -2.93429
   N       15.45181        -0.27728        -3.43802
   C       13.87378        -2.95960        -3.92942
   N       15.27050        -3.06821        -4.32413
   C       11.04820        -0.80032        -4.81930
   C       11.30992        -0.15984        -5.97337
   C       10.22501         0.46684        -6.78180
   C        8.83974         0.19740        -6.27652
   C        8.59681        -0.43833        -5.11621
   C        9.66815        -0.92081        -4.32515
   C        9.73089        -1.52058        -3.08633
   C        8.72935        -1.84854        -2.13896
   C        9.08643        -2.37741        -0.94450
   C       10.34973         0.05556        -8.22185
   C       10.58079         0.92295        -9.21349
   C       10.71366         0.55703       -10.58786
   S       11.06610         1.75226       -11.80425
   C       11.15476         0.60188       -13.12309
   C       10.87935        -0.65927       -12.60861
   C       10.64109        -0.67067       -11.21163
   O       10.38238        -1.95346       -10.85331
   C       10.46581        -2.63573       -12.01492
   N       10.74187        -1.94766       -13.06749
   C       11.40842         1.05181       -14.43108
   C       11.73754         0.32379       -15.53578
   C       11.52103         0.92410       -16.88214
   O       11.30146         2.08801       -17.12830
   C       11.57538        -0.21134       -17.82168
   C       11.32920        -0.22612       -19.16426
   C       11.41291        -1.44908       -19.86664
   C       11.74780        -2.63961       -19.15763
   C       11.82240        -3.85601       -19.86362
   C       11.57543        -3.86847       -21.20825
   C       11.24605        -2.70886       -21.92312
   C       11.16847        -1.51951       -21.25349
   F       11.64679        -5.02991       -21.88388
   C       12.00535        -2.59285       -17.76722
   C       11.92604        -1.39545       -17.11011
   C       12.17342        -1.04110       -15.71450
   C       12.90837        -1.78392       -14.82834
   C       13.38848        -1.28282       -13.60359
   N       13.83154        -0.89684       -12.61681
   C       13.35135        -3.09782       -15.07853
   N       13.72470        -4.17389       -15.22163
   H       16.53432        -5.83599         8.80922
   H       15.06230        -4.60434        12.61998
   H       12.83978        -4.11814        11.62696
   H       15.07764        -5.78038         6.84195
   H       11.34681        -4.04162         9.65962
   H        9.46339        -3.88224         4.71404
   H       15.16783        -3.64950         1.81703
   H       12.48645        -2.54918        -1.26557
   H       13.70010        -1.09056        -4.96229
   H       14.16050        -1.16888        -1.97584
   H       13.57537         0.30057        -2.78204
   H       15.96054        -1.13585        -3.63421
   H       15.96818         0.25348        -2.74526
   H       13.19858        -3.55980        -4.56385
   H       13.78992        -3.33546        -2.90773
   H       15.37699        -2.83194        -5.30593
   H       15.59816        -4.01955        -4.19695
   H       12.31617        -0.04033        -6.35076
   H       10.39178         1.55581        -6.73639
   H        8.03615         0.56965        -6.89329
   H        7.58356        -0.58445        -4.77132
   H        7.69265        -1.66092        -2.37547
   H        8.34275        -2.62411        -0.20084
   H       10.23479        -0.99925        -8.42495
   H       10.69303         1.97894        -9.00631
   H       10.29914        -3.69502       -11.99540
   H       11.25473         2.11215       -14.60632
   H       11.07316         0.68437       -19.68512
   H       12.07669        -4.76805       -19.34661
   H       11.06145        -2.77999       -22.98327
   H       10.91670        -0.61241       -21.78208
   H       12.24943        -3.50887       -17.25299
*
