# ORCA input file
# SCF done       -200.613514291615          0.046185229096
! CAM-B3LYP def2-SVP def2/J RIJCOSX Grid4 TightSCF
%maxcore 5000
%tddft
    Mode sTDDFT
    Ethresh 5.0
    maxcore 5000
end

%pal
  nprocs 6
  end
* xyz 0 1
   C       -7.40025         2.56293         3.19460
   C       -7.49040         2.63680         4.57611
   C       -7.65374         1.49250         5.34552
   C       -7.72560         0.23992         4.75641
   C       -7.63464         0.15117         3.37606
   C       -7.47634         1.31726         2.59019
   C       -7.41860         0.93812         1.18763
   C       -7.10100         1.74949         0.13491
   C       -6.81740         3.12782         0.25525
   N       -6.58648         4.25165         0.28841
   C       -6.96590         1.30906        -1.20241
   N       -6.82971         0.99218        -2.29088
   C       -7.73352        -0.49027         1.12863
   C       -7.64136        -1.00613         2.49670
   C       -7.40104        -2.29945         2.86421
   C       -7.14500        -3.35259         1.95944
   N       -6.86254        -4.23605         1.28548
   C       -7.28479        -2.72619         4.20457
   N       -7.19762        -3.12902         5.27623
   C       -8.17114        -1.14480         0.02526
   C       -8.81539        -2.42756        -0.00615
   C       -9.86509        -2.78550         0.78319
   C      -10.38760        -4.05223         0.31486
   C      -11.50291        -4.69669         0.86743
   N      -12.41804        -5.21044         1.32532
   C       -9.63396        -4.47734        -0.74349
   C       -8.58881        -3.51886        -0.97936
   C       -7.50497        -3.61136        -1.81627
   C       -7.17555        -4.69523        -2.79375
   C       -6.12825        -4.24245        -3.55287
   C       -5.71400        -2.95768        -3.05797
   C       -6.51425        -2.59832        -2.00207
   C       -4.63840        -2.22445        -3.57350
   N       -3.74640        -1.63969        -4.01456
   C       -7.74760        -5.99010        -2.85443
   C       -7.58941        -6.84597        -3.90163
   C       -8.10017        -8.16062        -3.94031
   S       -9.01474        -8.81803        -2.61346
   C       -9.13926       -10.33000        -3.40844
   C       -8.50562       -10.37233        -4.61412
   C       -8.52940       -11.58444        -5.48552
   C       -7.90315        -9.12315        -4.94505
   C       -7.19205        -8.81514        -6.14951
   C       -6.43456        -9.66643        -6.87993
   C       -5.70728        -9.27404        -8.04468
   C       -6.04155        -8.24833        -8.86693
   C       -5.29594        -7.84929       -10.01786
   C       -5.86209        -7.52368       -11.21544
   C       -4.82106        -7.39851       -12.20676
   C       -5.05263        -7.16554       -13.56915
   N       -5.26359        -6.98736       -14.68429
   C       -3.60096        -7.57952       -11.60629
   C       -3.81710        -7.76912       -10.19985
   C       -2.87848        -7.65234        -9.20603
   C       -1.41410        -7.48336        -9.36450
   C       -0.84699        -7.66011        -8.12973
   C       -1.89412        -7.84177        -7.15578
   C       -3.10621        -7.79402        -7.79100
   C       -1.70430        -8.01303        -5.77582
   N       -1.57206        -8.17399        -4.65078
   C       -0.70177        -7.05130       -10.51795
   C        0.62335        -7.27519       -10.72859
   C        1.29936        -6.68217       -11.81577
   C        2.63848        -6.70729       -12.09494
   C        3.20183        -6.32601       -13.38774
   C        2.61978        -5.53611       -14.34184
   C        1.35751        -4.91151       -14.23229
   N        0.35697        -4.36326       -14.20255
   C        3.23586        -5.20189       -15.56746
   N        3.68301        -4.87286       -16.57492
   C        4.52488        -6.92895       -13.46243
   C        4.82942        -7.51838       -12.21446
   C        6.02819        -8.18557       -12.02494
   C        6.92251        -8.25587       -13.08333
   C        6.63009        -7.66799       -14.30496
   C        5.43243        -7.00046       -14.50897
   C        3.72992        -7.25229       -11.29761
   C        3.81663        -7.30583        -9.93230
   C        4.93240        -7.81968        -9.23364
   N        5.79483        -8.24388        -8.61072
   C        2.87261        -6.77118        -9.03001
   N        2.17603        -6.32753        -8.23332
   H       -7.27908         3.46080         2.61110
   H       -7.43499         3.60076         5.05796
   H       -7.72664         1.57684         6.41908
   H       -7.85875        -0.64005         5.36455
   H       -8.16504        -0.61535        -0.91955
   H      -10.29816        -2.21121         1.58239
   H       -9.81458        -5.37513        -1.29853
   H       -5.62035        -4.76651        -4.33924
   H       -6.40474        -1.70138        -1.42770
   H       -8.28899        -6.34581        -1.99138
   H       -7.04101        -6.51299        -4.77034
   H       -9.68903       -11.12154        -2.93807
   H       -9.37018       -12.21804        -5.21824
   H       -7.61748       -12.16750        -5.35813
   H       -8.61522       -11.30129        -6.53199
   H       -7.22710        -7.77888        -6.45911
   H       -6.27000       -10.67432        -6.53145
   H       -4.83697        -9.87082        -8.28769
   H       -7.00163        -7.76493        -8.74059
   H       -6.91263        -7.45629       -11.43115
   H       -2.65557        -7.57604       -12.10810
   H        0.19352        -7.55748        -7.88127
   H       -4.06085        -7.85055        -7.30992
   H       -1.22747        -6.41303       -11.21698
   H        1.15592        -7.94339       -10.06896
   H        0.66095        -6.19149       -12.53831
   H        6.26631        -8.65398       -11.08441
   H        7.85778        -8.77742       -12.95046
   H        7.34233        -7.73290       -15.11352
   H        5.21825        -6.55520       -15.46636
*
