# ORCA input file
# SCF done       -271.306564755515          0.003224900902
! CAM-B3LYP def2-SVP def2/J RIJCOSX Grid4 TightSCF
%maxcore 5000
%tddft
    Mode sTDDFT
    Ethresh 5.0
    maxcore 5000
end

%pal
  nprocs 6
  end
* xyz 0 1
   C       -2.67763        -1.61928         4.62823
   C       -2.48081        -1.00048         5.85365
   C       -2.72571         0.35577         6.01988
   C       -3.17832         1.13371         4.96485
   C       -3.37598         0.52812         3.73482
   C       -3.12379        -0.85329         3.56225
   C       -3.41688        -1.21617         2.18343
   C       -3.50266        -2.48397         1.67545
   C       -3.23929        -3.65313         2.41998
   N       -3.03391        -4.63653         2.97583
   C       -3.94957        -2.79429         0.37466
   N       -4.35226        -3.11878        -0.65082
   C       -3.64583         0.03402         1.46336
   C       -3.85603         1.06998         2.47434
   C       -4.57803         2.21979         2.30923
   C       -5.26142         2.54866         1.11889
   N       -5.89803         2.82061         0.20314
   C       -4.80952         3.15475         3.33951
   N       -5.01307         3.94450         4.14696
   C       -3.52260         0.20387         0.12008
   C       -3.31382         1.46234        -0.55411
   C       -2.46018         2.40734         0.02248
   C       -2.12007         3.58044        -0.61958
   O       -1.40209         4.55347         0.04799
   C       -0.06143         4.37620         0.22592
   C        0.64912         5.27734         0.89256
   O        2.02197         5.19679         0.97544
   C        2.69470         6.16693         0.27897
   C        2.10429         7.12709        -0.42425
   O        2.79695         8.09793        -1.10483
   C        2.13859         8.68538        -2.13930
   C        1.15470         8.17665        -2.88549
   O        0.74158         6.87287        -2.77614
   C       -0.58905         6.58764        -2.84787
   C       -0.96931         5.34237        -2.57510
   O       -2.26598         4.90996        -2.66806
   C       -2.59658         3.81593        -1.92630
   C       -3.46882         2.89825        -2.48671
   C       -3.86961         1.73759        -1.82448
   C       -4.88803         0.93387        -2.45054
   C       -5.71419         0.05207        -1.86224
   C       -6.78499        -0.62575        -2.56353
   C       -7.41959        -0.03715        -3.62906
   C       -8.47631        -0.70263        -4.27952
   C       -9.27358        -0.31113        -5.34140
   C       -9.15908         0.95723        -6.11579
   C       -8.77781         0.66350        -7.58045
   N       -8.12118         1.82288        -8.15030
   C      -10.43410         1.81013        -5.99733
   N      -10.22679         3.13270        -6.56967
   C      -10.17869        -1.40699        -5.60252
   C      -11.18862        -1.54328        -6.47791
   C      -11.98541        -2.80083        -6.58067
   C      -11.51404        -3.90328        -5.68280
   C      -10.54391        -3.73065        -4.76621
   C       -9.86587        -2.49258        -4.65992
   C       -8.85623        -2.03681        -3.83632
   C       -8.20621        -2.60221        -2.71392
   C       -7.21574        -1.91049        -2.09516
   C      -12.00658        -3.20416        -8.03894
   C      -10.90280        -3.54029        -8.69872
   C      -10.87894        -3.82124       -10.13390
   C      -11.57169        -2.96174       -10.97903
   C      -11.53536        -3.10470       -12.35521
   O      -12.09682        -2.18192       -13.19644
   C      -13.35029        -1.73296       -12.90329
   C      -13.84063        -0.61807       -13.43843
   O      -15.14182        -0.21253       -13.27428
   C      -16.12116        -1.16114       -13.42634
   C      -16.03669        -2.16347       -14.29690
   O      -17.01449        -3.11534       -14.41206
   C      -16.64621        -4.38345       -14.71282
   C      -15.46208        -4.91000       -15.03182
   O      -14.30270        -4.19652       -15.26028
   C      -13.18301        -4.57775       -14.57815
   C      -11.97643        -4.17520       -14.96879
   O      -10.82723        -4.43462       -14.26115
   C      -10.85473        -4.20446       -12.91516
   C      -10.14877        -5.05036       -12.07986
   C      -10.12192        -4.87212       -10.69365
   C       -9.35146        -5.72924        -9.82740
   C       -8.39501        -6.60134       -10.21051
   C       -7.63038        -7.41011        -9.31852
   C       -7.21207        -7.12330        -8.05259
   C       -6.75023        -8.13089        -7.09877
   C       -6.35981        -9.41449        -7.36827
   C       -6.27706       -10.00520        -8.64743
   N       -6.17416       -10.55891        -9.64787
   C       -5.93838       -10.33982        -6.38851
   N       -5.58940       -11.15140        -5.65539
   C       -6.76697        -7.50672        -5.78425
   C       -7.07251        -6.13361        -5.93058
   C       -7.11070        -5.29857        -4.82461
   C       -6.84462        -5.84141        -3.57668
   C       -6.56328        -7.19271        -3.42928
   C       -6.52210        -8.03816        -4.52714
   C       -7.22557        -5.84278        -7.34671
   C       -7.14069        -4.59567        -7.90628
   C       -7.15836        -3.38981        -7.17656
   N       -7.21424        -2.36290        -6.66607
   C       -6.95248        -4.34041        -9.28130
   N       -6.72936        -4.05021       -10.36908
   H       -2.47800        -2.67235         4.51493
   H       -2.12897        -1.58532         6.68971
   H       -2.56074         0.81495         6.98269
   H       -3.35896         2.18758         5.10266
   H       -3.45675        -0.67443        -0.51063
   H       -2.02596         2.22282         0.99584
   H        0.39456         3.49978        -0.21923
   H        0.18203         6.14070         1.35086
   H        3.76291         6.05278         0.36291
   H        1.02808         7.20779        -0.46563
   H        2.52172         9.67240        -2.34899
   H        0.67455         8.78131        -3.64391
   H       -1.27277         7.38026        -3.12069
   H       -0.21887         4.60158        -2.32999
   H       -3.85381         3.11272        -3.47194
   H       -5.03230         1.13956        -3.50310
   H       -5.62322        -0.17213        -0.80820
   H       -7.14244         0.95512        -3.94854
   H       -8.33330         1.54241        -5.70032
   H       -9.67773         0.34866        -8.13561
   H       -8.06927        -0.17139        -7.59371
   H       -8.76393         2.61011        -8.12996
   H       -7.85152         1.64353        -9.11108
   H      -10.72620         1.84287        -4.93296
   H      -11.25386         1.34346        -6.54929
   H       -9.49710         3.61916        -6.05775
   H      -11.07565         3.68347        -6.49444
   H      -11.46428        -0.75794        -7.16649
   H      -13.01991        -2.55929        -6.29086
   H      -12.02195        -4.85000        -5.79243
   H      -10.25425        -4.54404        -4.11491
   H       -8.52344        -3.56882        -2.35024
   H       -6.70349        -2.33163        -1.24222
   H      -12.96137        -3.18387        -8.54576
   H       -9.96129        -3.57086        -8.16563
   H      -12.09467        -2.11222       -10.56404
   H      -13.96455        -2.38500       -12.29074
   H      -13.23617         0.06595       -14.01490
   H      -16.99005        -0.97023       -12.81482
   H      -15.16119        -2.28702       -14.91734
   H      -17.50456        -5.03760       -14.66354
   H      -15.38753        -5.98090       -15.17124
   H      -13.33249        -5.15354       -13.66990
   H      -11.81455        -3.62854       -15.88511
   H       -9.62839        -5.87543       -12.53751
   H       -9.57058        -5.64427        -8.77066
   H       -8.21538        -6.78052       -11.26122
   H       -7.38813        -8.39257        -9.70339
   H       -7.34192        -4.24967        -4.91889
   H       -6.84654        -5.19914        -2.71022
   H       -6.36600        -7.59312        -2.44659
   H       -6.29748        -9.08372        -4.39510
*
