# ORCA input file
# SCF done       -182.749069576534          0.000560685343
! CAM-B3LYP def2-SVP def2/J RIJCOSX Grid4 TightSCF
%maxcore 5000
%tddft
    Mode sTDDFT
    Ethresh 5.0
    maxcore 5000
end

%pal
  nprocs 6
  end
* xyz 0 1
   C       -0.98392         5.29159        -2.97015
   C        0.24424         4.68672        -3.02715
   C        1.11119         4.78267        -4.13441
   N        1.84355         4.83766        -5.01597
   C        0.71242         3.81919        -2.01954
   N        1.08718         3.07679        -1.22801
   C       -1.65354         5.96938        -4.07265
   C       -3.05713         5.97521        -3.81481
   C       -3.94405         6.51693        -4.70049
   C       -3.45886         7.09750        -5.89409
   C       -2.05624         7.10827        -6.14838
   C       -1.16067         6.53128        -5.21879
   C       -1.58622         7.69916        -7.33859
   C       -2.45771         8.25178        -8.23734
   C       -3.83808         8.23954        -7.98724
   C       -4.32801         7.67399        -6.84128
   C       -3.31598         5.35000        -2.50704
   O       -4.37816         5.11313        -1.97921
   C       -1.96385         5.11755        -1.91745
   C       -1.83864         4.89796        -0.58266
   C       -0.69638         5.07850         0.23758
   S        0.53096         6.23675        -0.18420
   C        1.33967         5.92088         1.30578
   N        2.52392         6.63233         1.58555
   O        3.07627         6.40661         2.64278
   O        2.89768         7.42482         0.74334
   C        0.72101         4.98260         2.08228
   C       -0.46152         4.48535         1.49120
   C       -1.29690         3.46486         2.03960
   C       -1.09059         2.85625         3.23193
   C       -1.90757         1.82948         3.77027
   N       -1.61074         1.26745         4.99470
   C       -2.52885         0.30597         5.26576
   C       -2.91133        -0.65425         6.19117
   C       -4.05240        -1.27515         5.65717
   N       -4.35902        -0.70253         4.43844
   C       -3.44065         0.26145         4.17453
   C       -3.05209         1.21466         3.24173
   C       -4.78220        -2.32035         6.26496
   C       -5.87453        -2.94799         5.74759
   C       -6.60319        -3.98394         6.38133
   S       -7.54439        -5.05813         5.39341
   C       -7.94338        -6.00680         6.78725
   N       -8.77235        -7.12368         6.60971
   O       -9.05074        -7.78443         7.59201
   O       -9.15475        -7.34693         5.47365
   C       -7.39900        -5.52369         7.94637
   C       -6.64938        -4.34822         7.74214
   C       -6.10247        -3.55400         8.79904
   C       -5.78068        -4.00690        10.03554
   C       -5.22622        -3.13067        10.99895
   C       -4.81598        -3.48791        12.24978
   C       -4.20518        -2.61706        13.23584
   C       -3.69360        -1.36371        13.01136
   C       -3.10923        -0.55852        14.01086
   N       -2.63277         0.14926        14.77913
   C       -3.62578        -0.73085        11.75372
   N       -3.50535        -0.17116        10.75715
   C       -4.14641        -3.34738        14.49592
   C       -4.60579        -4.67753        14.27183
   C       -5.00934        -4.82827        12.86256
   O       -5.42418        -5.83485        12.32802
   C       -4.63727        -5.60690        15.27072
   C       -4.20848        -5.24108        16.56647
   C       -3.75994        -3.90925        16.80200
   C       -3.73528        -2.96879        15.74672
   C       -3.33941        -3.55416        18.09991
   C       -3.35673        -4.47002        19.11642
   C       -3.79617        -5.78161        18.88273
   C       -4.21346        -6.15879        17.63498
   H       -5.00378         6.50565        -4.49310
   H       -0.10257         6.55956        -5.42809
   H       -0.52296         7.70342        -7.52793
   H       -2.08788         8.70153        -9.14646
   H       -4.51131         8.68087        -8.70673
   H       -5.38988         7.66194        -6.64366
   H       -2.76273         4.64509        -0.07135
   H        1.11997         4.67952         3.03238
   H       -2.13900         3.15868         1.43897
   H       -0.24457         3.14422         3.84101
   H       -0.83643         1.53776         5.57691
   H       -2.46177        -0.89125         7.13417
   H       -5.12904        -0.97064         3.85150
   H       -3.51312         1.44516         2.30345
   H       -4.38094        -2.65016         7.21135
   H       -6.20229        -2.70937         4.74418
   H       -7.57027        -5.98305         8.90298
   H       -5.95252        -2.50446         8.57820
   H       -5.88909        -5.04782        10.29798
   H       -5.12347        -2.09551        10.69667
   H       -4.98452        -6.61046        15.07434
   H       -3.39362        -1.96761        15.95713
   H       -3.00048        -2.54351        18.27453
   H       -3.03120        -4.18878        20.10672
   H       -3.80268        -6.49159        19.69617
   H       -4.55338        -7.16713        17.44918
*
