# ORCA input file
# SCF done       -190.698686105522          0.000871345277
! CAM-B3LYP def2-SVP def2/J RIJCOSX Grid4 TightSCF
%maxcore 5000
%tddft
    Mode sTDDFT
    Ethresh 5.0
    maxcore 5000
end

%pal
  nprocs 6
  end
* xyz 0 1
   C      -16.65554        -6.69971         2.78994
   C      -17.88169        -6.37153         3.34637
   C      -19.03713        -6.61932         2.60336
   C      -20.30033        -6.28320         3.15095
   N      -21.31720        -6.00769         3.59888
   C      -18.97312        -7.19320         1.31862
   C      -20.16369        -7.43387         0.59149
   N      -21.11541        -7.63600        -0.01232
   C      -17.73646        -7.51869         0.76090
   C      -16.60291        -7.26262         1.50288
   C      -15.19393        -7.50361         1.11459
   O      -14.84121        -8.02169         0.07895
   C      -14.37770        -6.98164         2.23597
   C      -15.28984        -6.56975         3.29722
   C      -14.96642        -6.18122         4.56919
   C      -15.91882        -5.81234         5.54608
   N      -16.63840        -5.49716         6.38210
   C      -13.67096        -6.11506         5.13194
   N      -12.67551        -6.03670         5.69870
   C      -13.02714        -6.78546         2.31299
   C      -11.93791        -7.06567         1.44094
   C      -11.93292        -7.77710         0.23592
   C      -10.78818        -7.96574        -0.52811
   C       -9.53804        -7.46316        -0.15494
   C       -9.49869        -6.76427         1.07275
   C      -10.67091        -6.57020         1.85148
   N      -10.31004        -5.87674         2.93905
   N       -9.02827        -5.69205         2.80095
   N       -8.47994        -6.18481         1.72270
   C       -8.27008        -4.98533         3.78533
   C       -8.36090        -7.60264        -0.93863
   C       -8.19542        -8.24700        -2.17211
   C       -6.85811        -8.12315        -2.69517
   N       -6.50653        -8.74339        -3.82206
   C       -7.44638        -9.37390        -4.48623
   C       -7.07096        -9.98698        -5.78340
   O       -5.99213        -9.80164        -6.31035
   C       -8.12695       -10.78720        -6.42695
   C       -9.37394       -10.88346        -5.95497
   C       -9.83397       -10.21969        -4.72109
   O      -10.97399       -10.30957        -4.32160
   C       -8.78656        -9.45708        -3.99263
   N       -9.13107        -8.92547        -2.84206
   C       -6.02032        -7.36337        -1.86695
   S       -6.87608        -6.86412        -0.44955
   C       -4.66525        -6.98588        -2.10306
   C       -3.79504        -6.62901        -1.07240
   C       -2.46740        -6.30294        -1.29807
   C       -1.89671        -6.25305        -2.57294
   C       -2.75332        -6.61916        -3.63700
   C       -4.11909        -6.96475        -3.40458
   N       -4.67209        -7.21365        -4.59780
   N       -3.70544        -7.07283        -5.44537
   N       -2.54172        -6.72350        -4.95827
   C       -3.90535        -7.29808        -6.84189
   C       -0.52610        -5.88608        -2.72956
   C        0.12198        -5.39778        -3.82090
   C        1.60714        -5.47016        -3.88132
   O        2.36763        -5.69962        -2.97235
   C        1.94251        -5.25378        -5.31005
   C        3.17242        -5.33405        -5.92741
   C        3.23332        -5.11662        -7.30547
   C        2.06006        -4.82833        -8.02922
   C        0.82120        -4.73702        -7.39216
   C        0.76693        -4.94813        -6.02516
   C       -0.35120        -4.88547        -5.08644
   C       -1.54322        -4.25274        -5.31363
   C       -2.46226        -3.93783        -4.29072
   N       -3.21755        -3.62047        -3.48741
   C       -1.97017        -3.79773        -6.57697
   N       -2.38803        -3.45921        -7.59086
   C        2.13765        -4.62957        -9.43018
   N        2.18896        -4.46996       -10.56256
   C        4.47672        -5.18940        -7.97819
   N        5.49127        -5.25342        -8.50526
   H      -17.97443        -5.92812         4.32463
   H      -17.66547        -7.95569        -0.22363
   H      -12.68159        -6.28044         3.20849
   H      -12.85716        -8.19431        -0.12815
   H      -10.86038        -8.51616        -1.45313
   H       -8.92391        -4.78999         4.63226
   H       -7.90282        -4.04550         3.37081
   H       -7.41698        -5.58900         4.09390
   H       -7.83287       -11.28270        -7.34256
   H      -10.12831       -11.46176        -6.47119
   H       -4.17024        -6.62928        -0.05936
   H       -1.84875        -6.03953        -0.45287
   H       -4.61053        -8.12296        -6.95158
   H       -2.94821        -7.54038        -7.29827
   H       -4.31562        -6.40301        -7.31412
   H        0.11095        -6.07244        -1.86965
   H        4.06376        -5.55954        -5.36180
   H       -0.05927        -4.51623        -7.97497
*
