# ORCA input file
# SCF done       -203.634020957360          0.000749253315
! CAM-B3LYP def2-SVP def2/J RIJCOSX Grid4 TightSCF
%maxcore 5000
%tddft
    Mode sTDDFT
    Ethresh 5.0
    maxcore 5000
end

%pal
  nprocs 6
  end
* xyz 0 1
   C        0.14390         1.19008         2.27585
   C        0.59571         1.61457         3.49830
   C        1.87041         1.30530         4.01877
   N        2.89455         1.09373         4.49140
   C       -0.14930         2.37439         4.42526
   N       -0.70009         2.96895         5.23879
   C        0.86339         0.30531         1.36963
   C        0.00310        -0.04319         0.30026
   C        0.38633        -0.88138        -0.71878
   C        1.68470        -1.39955        -0.68209
   C        2.54120        -1.04082         0.38741
   C        2.15181        -0.19495         1.41832
   S        4.10238        -1.78633         0.23301
   C        3.59125        -2.56081        -1.24352
   C        2.31696        -2.27673        -1.60462
  Br        4.78798        -3.66828        -2.16877
   C       -1.29939         0.62655         0.47091
   O       -2.24357         0.54884        -0.28470
   C       -1.16522         1.45187         1.69850
   C       -2.01864         2.42391         2.13954
   C       -3.34624         2.70542         1.75318
   C       -4.28852         1.95336         1.06411
   C       -5.51126         2.60516         0.97263
   C       -5.51173         3.87576         1.58831
   S       -4.01656         4.24759         2.30267
   C       -6.79684         4.45354         1.42323
   C       -7.60654         3.54946         0.71585
   C       -6.83015         2.35665         0.41345
   C       -7.26169         1.24269        -0.24252
   C       -6.44681         0.10876        -0.45487
   N       -5.81610        -0.83291        -0.62326
   C       -8.57654         1.14318        -0.74705
   N       -9.64275         1.06974        -1.16180
   C       -8.90140         4.02675         0.51669
   C       -9.07625         5.28956         1.05047
   S       -7.62159         5.89378         1.82900
   C      -10.30359         6.02279         1.05037
   C      -10.55167         7.34994         1.33232
   C       -9.49705         8.34067         1.69108
   O       -9.47940         8.93464         2.72870
   O       -8.55018         8.53808         0.75359
   C      -11.94278         7.66874         1.31777
   C      -12.70882         6.57305         1.00344
   S      -11.79003         5.16009         0.74684
   C      -12.51798         8.97111         1.54974
   C      -13.80434         9.21546         1.98061
   C      -14.08397        10.58293         2.04156
   C      -12.99690        11.37592         1.64322
   S      -11.63497        10.44328         1.21411
   C      -13.38020        12.74034         1.72834
   C      -14.71414        12.80478         2.17503
   C      -15.19805        11.44991         2.38924
   C      -16.43882        11.06914         2.80697
   C      -16.79191         9.71036         2.94919
   N      -17.07872         8.60487         3.04846
   C      -17.45472        12.00271         3.10401
   N      -18.28672        12.75549         3.33801
   C      -15.19281        14.10772         2.25484
   C      -14.23134        15.04548         1.90757
   S      -12.71711        14.27660         1.43150
   C      -14.44797        16.43961         1.81715
   C      -13.55628        17.46068         1.70873
   C      -12.12944        17.54847         1.93826
   C      -11.42508        16.86183         2.89252
   C      -10.05403        17.06292         3.14885
   N       -8.93610        17.18734         3.37594
   C      -12.03263        15.95582         3.78603
   N      -12.51609        15.24873         4.54999
   C      -11.64416        18.70972         1.20181
   C      -12.76138        19.46175         0.75667
   C      -14.00496        18.76142         1.13618
   O      -15.14530        19.12505         0.97059
   C      -12.62516        20.64399         0.07020
   C      -11.32916        21.09598        -0.20025
   C      -10.22155        20.32874         0.23559
   C      -10.35767        19.13857         0.93979
   S       -8.71574        21.06530        -0.21833
   C       -9.58033        22.37887        -0.97216
   C      -10.92790        22.27214        -0.89096
  Br       -8.62236        23.76271        -1.79850
   H       -0.29565        -1.13000        -1.51668
   H        2.84245         0.05131         2.20731
   H        1.84124        -2.66840        -2.48509
   H       -1.63478         3.10349         2.89190
   H       -4.07426         0.98362         0.65506
   H       -9.68582         3.49701         0.00693
   H       -8.69753         8.02397        -0.05137
   H      -13.77403         6.53649         0.89459
   H      -14.49122         8.43687         2.25599
   H      -16.18245        14.38605         2.56950
   H      -15.49062        16.73390         1.73361
   H      -13.49046        21.20383        -0.24810
   H       -9.48796        18.58253         1.24909
   H      -11.61251        22.99172        -1.30124
*
