# ORCA input file
# SCF done       -204.035246352605          0.000739192808
! CAM-B3LYP def2-SVP def2/J RIJCOSX Grid4 TightSCF
%maxcore 5000
%tddft
    Mode sTDDFT
    Ethresh 5.0
    maxcore 5000
end

%pal
  nprocs 6
  end
* xyz 0 1
   C       -0.17938         3.96601         5.49588
   C        0.74202         3.04387         5.07344
   C        2.03384         2.90775         5.62561
   N        3.09587         2.74765         6.03019
   C        0.55902         2.11382         4.02793
   N        0.49508         1.33381         3.18765
   C        0.03753         4.95118         6.55073
   C       -1.11490         5.76960         6.65477
   C       -1.21969         6.79669         7.56116
   C       -0.13300         7.02817         8.41056
   C        1.01484         6.20641         8.30150
   C        1.11970         5.16877         7.38294
   S        2.23859         6.66335         9.44581
   C        1.20728         7.93394        10.04807
   C        0.00715         8.01393         9.42486
  Br        1.81106         9.03321        11.44163
   C       -2.11011         5.32611         5.66702
   O       -3.20890         5.81914         5.47626
   C       -1.51908         4.17576         4.97368
   C       -2.14894         3.40498         4.03193
   C       -3.42453         3.53232         3.45812
   C       -3.90213         2.60681         2.52131
   C       -5.16531         2.92420         2.06173
   C       -5.66383         4.11428         2.64398
   S       -4.59141         4.81825         3.76279
   C       -6.95002         4.36361         2.10176
   C       -7.26283         3.33635         1.18658
   C       -6.15509         2.39928         1.13214
   C       -6.06385         1.27209         0.37009
   C       -4.93171         0.43000         0.40337
   N       -4.01709        -0.26049         0.42737
   C       -7.09791         0.86933        -0.50196
   N       -7.93422         0.53646        -1.21186
   C       -8.51201         3.50431         0.59376
   C       -9.13460         4.65043         1.05127
   S       -8.18638         5.53368         2.22581
   C      -10.40240         5.17565         0.66275
   N      -10.77368         6.33101         1.19461
   N      -11.88430         6.92417         0.89314
   C      -12.75865         6.42890         0.02954
   C      -12.49358         5.17669        -0.59527
   C      -11.26198         4.52518        -0.26849
   N      -11.12076         3.37163        -0.91489
   S      -12.41265         3.13361        -1.84070
   N      -13.21205         4.47771        -1.46918
   C      -13.92419         7.20418        -0.24224
   C      -14.96933         6.90409        -1.09524
   C      -15.91527         7.92626        -1.11627
   C      -15.57292         9.00319        -0.27186
   S      -14.09756         8.75482         0.54782
   C      -16.58027         9.99620        -0.38404
   C      -17.55642         9.54155        -1.29334
   C      -17.16653         8.23119        -1.78705
   C      -17.82592         7.47983        -2.71508
   C      -17.35556         6.21937        -3.14032
   N      -16.98044         5.19202        -3.48366
   C      -19.02494         7.93238        -3.30545
   N      -20.00074         8.31406        -3.77148
   C      -18.56996        10.46534        -1.50767
   C      -18.37907        11.63085        -0.77897
   S      -16.93168        11.54728         0.21808
   C      -19.19143        12.78549        -0.72796
   C      -20.14134        13.19818        -1.61122
   C      -20.48179        12.80987        -2.96513
   C      -19.62650        12.34242        -3.92888
   C      -20.00082        12.12469        -5.27204
   N      -20.25180        11.93767        -6.37570
   C      -18.25069        12.12217        -3.72411
   N      -17.12088        11.94902        -3.61437
   C      -21.84181        13.27524        -3.21669
   C      -22.23243        14.13777        -2.16091
   C      -21.15393        14.19548        -1.15686
   O      -21.10406        14.86337        -0.15070
   C      -23.45244        14.76953        -2.13957
   C      -24.33101        14.52739        -3.20086
   C      -23.93882        13.64715        -4.23894
   C      -22.70150        13.01537        -4.26636
   S      -25.18290        13.47831        -5.43817
   C      -26.19723        14.58210        -4.54740
   C      -25.63609        15.05164        -3.40750
  Br      -27.90113        15.00710        -5.20353
   H       -2.11152         7.40118         7.61384
   H        2.01513         4.57182         7.34239
   H       -0.74891         8.73734         9.66970
   H       -1.60321         2.54846         3.65463
   H       -3.32330         1.75439         2.21195
   H       -8.96426         2.85195        -0.13117
   H      -15.01083         5.98934        -1.65855
   H      -19.43110        10.29664        -2.12808
   H      -19.09681        13.40201         0.16088
   H      -23.72170        15.42934        -1.32988
   H      -22.44779        12.34526        -5.07103
   H      -26.12125        15.73890        -2.73878
*
