# ORCA input file
# SCF done       -164.973233819824          0.000360344443
! CAM-B3LYP def2-SVP def2/J RIJCOSX Grid4 TightSCF
%maxcore 5000
%tddft
    Mode sTDDFT
    Ethresh 5.0
    maxcore 5000
end

%pal
  nprocs 6
  end
* xyz 0 1
   C        9.86655       -11.35150        -7.57768
   S        8.31729       -11.09507        -6.86993
   C        8.87636       -11.49297        -5.26232
   C       10.22521       -11.80888        -5.31261
   C       10.77252       -11.72423        -6.63457
   S       12.45840       -12.13859        -6.58879
   C       12.26980       -12.37864        -4.85167
   N       11.11332       -12.18063        -4.35432
   C        8.04781       -11.48334        -4.11743
   C        6.72740       -11.17314        -4.13476
   C        5.88378       -11.16422        -2.99912
   C        6.23808       -11.45923        -1.60412
   N        5.24386       -11.38509        -0.76905
   C        4.15735       -11.03658        -1.52277
   C        4.53389       -10.88125        -2.92905
   C        3.38187       -10.53671        -3.71745
   S        3.36267       -10.32908        -5.35270
   C        2.29535       -10.47174        -2.76586
   C        2.81094       -10.79882        -1.42335
   N        1.80532       -10.79862        -0.50296
   C        0.72426       -10.53366        -1.17603
   C        0.93372       -10.31183        -2.60973
   C       -0.11249        -9.97630        -3.53590
   C       -1.42077       -10.33021        -3.26575
   C       -2.43507       -10.01815        -4.18626
   C       -3.80439       -10.27508        -4.15749
   C       -4.54168       -10.96563        -3.06064
   C       -5.65878       -10.08073        -2.48459
   N       -5.13542        -8.75301        -2.21445
   C       -5.08455       -12.33024        -3.52337
   N       -3.96704       -13.23002        -3.73767
   C       -4.35170        -9.75192        -5.38559
   C       -5.60092        -9.74632        -5.89223
   C       -5.89642        -9.18485        -7.23672
   C       -4.74742        -8.49379        -7.89818
   C       -3.50085        -8.51270        -7.38738
   C       -3.24851        -9.14294        -6.14813
   C       -2.09136        -9.31672        -5.41257
   C       -0.74822        -8.95149        -5.65316
   C        0.20491        -9.27268        -4.74130
   C       -6.26627       -10.32473        -8.15849
   C       -7.34568       -10.31885        -8.94764
   C       -7.68398       -11.35230        -9.87576
   C       -7.00181       -12.62888       -10.10575
   N       -7.54310       -13.37003       -11.03037
   C       -8.61342       -12.65590       -11.48885
   C       -8.72875       -11.38238       -10.76906
   C       -9.85503       -10.63051       -11.26726
   S      -10.35787        -9.15102       -10.74712
   C      -10.40873       -11.46286       -12.29976
   C       -9.62609       -12.70244       -12.41284
   N      -10.12930       -13.50619       -13.39610
   C      -11.14236       -12.86200       -13.88960
   C      -11.39593       -11.55689       -13.26239
   C      -12.43243       -10.67688       -13.63545
   S      -12.68703        -9.13900       -12.83093
   C      -14.04516        -8.72181       -13.82487
   C      -14.28842        -9.73267       -14.74124
   C      -13.38252       -10.82616       -14.63077
   S      -13.77812       -12.02145       -15.81916
   C      -15.09228       -10.96493       -16.33961
   N      -15.22809        -9.86397       -15.71750
   C      -14.77946        -7.50221       -13.68755
   C      -14.50363        -6.55507       -12.79087
   H       10.00298       -11.21153        -8.63050
   H       13.11958       -12.67941        -4.27075
   H        8.54849       -11.74926        -3.19669
   H        6.25952       -10.91394        -5.07721
   H        7.22110       -11.71515        -1.24994
   H       -0.22031       -10.45463        -0.66669
   H       -1.66159       -10.88773        -2.37350
   H       -3.83014       -11.17385        -2.25572
   H       -6.07312       -10.58303        -1.59286
   H       -6.46949        -9.97047        -3.20817
   H       -4.37053        -8.80370        -1.54972
   H       -5.85529        -8.16157        -1.81481
   H       -5.71783       -12.19194        -4.41503
   H       -5.70551       -12.75638        -2.72979
   H       -3.36935       -12.87941        -4.47924
   H       -4.29062       -14.15362        -4.00058
   H       -6.43910       -10.19297        -5.37727
   H       -6.75616        -8.50679        -7.16988
   H       -4.96385        -8.02061        -8.84340
   H       -2.68447        -8.03103        -7.90554
   H       -0.49059        -8.42069        -6.55728
   H        1.23268        -8.99618        -4.90956
   H       -5.55381       -11.13649        -8.18452
   H       -8.03549        -9.48436        -8.92212
   H       -6.12925       -12.97615        -9.58092
   H      -11.72339       -13.28521       -14.69006
   H      -15.72448       -11.27528       -17.14808
   H      -15.60072        -7.39713       -14.38414
   H      -13.68462        -6.66052       -12.09792
   H      -15.08598        -5.65359       -12.72629
*
