# ORCA input file
# SCF done       -191.673457928183          0.000745937693
! CAM-B3LYP def2-SVP def2/J RIJCOSX Grid4 TightSCF
%maxcore 5000
%tddft
    Mode sTDDFT
    Ethresh 5.0
    maxcore 5000
end

%pal
  nprocs 6
  end
* xyz 0 1
   C      -10.72258        -0.08808         4.37425
   S      -10.08236         1.32436         3.64274
   C      -11.53481         2.21237         3.96886
   C      -12.46879         1.41112         4.62634
   C      -11.99214         0.08468         4.85628
   O      -12.62018        -0.94863         5.45912
   C      -13.93741        -0.76318         5.92629
   C      -13.71446         1.94176         4.98817
   N      -14.71821         2.42886         5.26415
   C      -11.71527         3.56736         3.58740
   C      -10.78441         4.29803         2.93079
   C      -10.95267         5.65682         2.53680
   C      -11.85776         6.55946         3.02683
   C      -11.59211         7.84689         2.43506
   C      -12.37715         8.98321         2.64236
   N      -13.05031         9.90155         2.80138
   C      -10.49282         7.75040         1.61757
   C      -10.06971         6.38098         1.60365
   C       -9.16749         5.82771         0.72034
   C       -8.15935         6.56300        -0.08250
   C       -7.73450         5.72160        -1.07502
   C       -8.38185         4.45101        -0.90277
   C       -9.20515         4.50151         0.20299
   C       -8.19582         3.34570        -1.74186
   N       -8.03271         2.44295        -2.43298
   C       -7.61397         7.84446         0.20452
   C       -7.55855         8.40227         1.43787
   C       -7.03967         9.70304         1.74978
   C       -6.67002         9.98061         3.05475
   C       -6.22665        11.26294         3.41335
   C       -5.81226        11.80277         4.63269
   C       -5.63719        11.12145         5.94648
   C       -6.98936        10.64799         6.50952
   N       -7.79427        11.80888         6.85654
   C       -4.62288         9.96911         5.84603
   N       -3.31691        10.52199         5.53040
   C       -5.58123        13.20619         4.40749
   C       -5.24482        14.20033         5.25592
   C       -5.26446        15.61836         4.80906
   C       -5.32214        15.80633         3.33035
   C       -5.61326        14.79930         2.48571
   C       -5.81446        13.48969         2.98804
   C       -6.20228        12.30339         2.39375
   C       -6.56370        11.99147         1.06451
   C       -6.95564        10.72893         0.75547
   C       -6.54710        16.13268         5.46118
   C       -7.75481        15.78413         5.01289
   C       -9.00366        16.21914         5.57725
   C       -9.24033        17.36900         6.26915
   C      -10.66017        17.46872         6.52949
   C      -11.27788        18.50781         7.23280
   N      -11.80094        19.36451         7.79215
   C      -11.29419        16.39719         5.95590
   C      -10.30023        15.55827         5.34860
   C      -10.51646        14.33411         4.75743
   C      -11.81606        13.81775         4.24495
   C      -11.63285        12.50001         3.92826
   C      -10.26474        12.15194         4.20548
   C       -9.58014        13.26188         4.65186
   C       -9.76244        10.85607         4.06344
   N       -9.37942         9.77760         3.95360
   C      -12.97228        14.61237         4.02650
   C      -14.18797        14.10562         3.69360
   C      -15.37369        14.86704         3.54045
   S      -16.80605        14.08610         2.94359
   C      -17.74727        15.52656         3.07208
   C      -16.97663        16.58169         3.56424
   C      -15.63176        16.20891         3.83668
   O      -14.63930        16.96631         4.34712
   C      -14.91272        18.26239         4.83777
   C      -17.50425        17.87303         3.72960
   N      -17.94122        18.92913         3.84623
   C      -19.12567        15.45773         2.67827
   C      -20.03059        16.43599         2.72421
   H      -10.14169        -0.98596         4.41894
   H      -14.23180        -1.72071         6.35264
   H      -14.62006        -0.50187         5.11281
   H      -13.98573         0.00942         6.69876
   H      -12.67690         3.99756         3.83204
   H       -9.83876         3.82813         2.69323
   H      -12.62878         6.37987         3.75207
   H      -10.09448         8.53482         1.00487
   H       -7.00029         5.93234        -1.83013
   H       -9.87098         3.72010         0.51401
   H       -7.12365         8.33467        -0.62789
   H       -7.91208         7.83043         2.28581
   H       -6.74186         9.19857         3.79436
   H       -5.21595        11.84244         6.65418
   H       -6.79997         9.98083         7.36688
   H       -7.53655        10.08446         5.75246
   H       -7.39944        12.28326         7.66276
   H       -8.73665        11.52334         7.09789
   H       -4.97390         9.22785         5.11290
   H       -4.54479         9.47387         6.81842
   H       -3.34157        10.96984         4.61950
   H       -2.61681         9.78944         5.50115
   H       -5.06343        14.02210         6.30599
   H       -4.42099        16.17434         5.22947
   H       -5.17976        16.81440         2.97266
   H       -5.69074        14.97218         1.42209
   H       -6.53603        12.76447         0.31033
   H       -7.25521        10.49219        -0.25413
   H       -6.42832        16.73905         6.34579
   H       -7.82544        15.14025         4.14667
   H       -8.52419        18.11630         6.55520
   H      -12.33627        16.16553         6.05662
   H      -12.34539        11.81292         3.51328
   H       -8.57171        13.25595         5.01850
   H      -12.86689        15.68012         4.11851
   H      -14.29969        13.04084         3.54210
   H      -13.99093        18.59396         5.31521
   H      -15.71767        18.25101         5.57635
   H      -15.17113        18.94982         4.02910
   H      -19.41904        14.47992         2.31571
   H      -19.80386        17.42523         3.07678
   H      -21.04161        16.25797         2.40230
*
