# ORCA input file
# SCF done       -177.387086619325          0.000512086958
! CAM-B3LYP def2-SVP def2/J RIJCOSX Grid4 TightSCF
%maxcore 5000
%tddft
    Mode sTDDFT
    Ethresh 5.0
    maxcore 5000
end

%pal
  nprocs 6
  end
* xyz 0 1
   C       -2.12153        -9.39080         1.34304
   N       -0.95046        -9.30967         0.69512
   C       -0.51646        -8.09641         0.65543
   C        0.66763        -7.41271         0.73307
   C       -2.61911        -8.26110         1.93070
   S       -1.85281        -6.85379         1.17950
   N       -0.71757        -5.87719         1.86522
   C        0.49553        -6.17544         1.39609
   C        1.58340        -5.26235         1.61752
   C        1.42916        -4.07172         2.23824
   C        2.51115        -3.17197         2.44944
   N        3.74317        -3.44699         2.04354
   C        4.49700        -2.39241         2.41025
   C        3.69655        -1.37188         3.09958
   C        4.54199        -0.23376         3.48391
   O        4.22721         0.78593         4.06480
   C        5.87249        -0.63332         2.98914
   C        5.80096        -1.95623         2.34185
   N        7.01953        -2.33234         1.88344
   C        7.82317        -1.34467         2.20008
   C        7.17290        -0.25171         2.89147
   C        2.41019        -1.85836         3.13244
   C        1.21370        -1.30706         3.66482
   C        1.17193        -0.10902         4.29517
   C        0.00254         0.52099         4.84204
   C       -1.24072        -0.08264         4.85973
   C       -2.35320         0.60182         5.37731
   C       -3.69307         0.23298         5.48525
   C       -4.36230        -1.04626         5.11999
   C       -4.68303        -1.11315         3.60808
   N       -3.46757        -1.06330         2.81781
   C       -3.57688        -2.30534         5.52819
   N       -4.50904        -3.40892         5.69576
   C       -4.39303         1.37308         6.02534
   C       -5.69936         1.56913         6.28763
   C       -6.20048         2.88789         6.77624
   C       -5.13569         3.88213         7.09922
   C       -3.83002         3.66231         6.85133
   C       -3.41025         2.43645         6.28439
   C       -2.17885         1.95781         5.88358
   C       -0.89157         2.54403         5.87945
   C        0.15694         1.84248         5.38107
   C       -7.10706         3.36623         5.66861
   C       -6.72385         4.22050         4.70904
   C       -7.60714         4.61845         3.65893
   N       -8.85486         4.17538         3.58737
   C       -9.38860         4.75260         2.49446
   C       -8.41581         5.62948         1.82191
   C       -9.02080         6.24788         0.63170
   O       -8.52023         7.02206        -0.15785
   C      -10.38546         5.69270         0.63637
   C      -10.56770         4.78668         1.78774
   N      -11.82026         4.27077         1.79761
   C      -12.41181         4.79021         0.74723
   C      -11.57448         5.68469        -0.02173
   C       -7.26114         5.54921         2.56027
   C       -5.99550         6.17996         2.37946
   C       -5.73975         7.06721         1.39649
   C       -4.45178         7.68557         1.24027
   N       -3.44819         7.43080         2.11904
   C       -2.37865         8.07462         1.81694
   C       -1.34312         8.72753         2.43493
   C       -4.19613         8.62739         0.25917
   S       -2.45760         8.81031         0.06780
   N       -1.56180        10.11431         0.54629
   C       -0.92285         9.84190         1.67865
   C        0.14691        10.71749         2.12510
   C        0.54273        11.79413         1.45567
   H       -2.58045       -10.36148         1.44692
   H        1.62096        -7.80487         0.43719
   H       -3.59241        -8.15181         2.36609
   H        2.56147        -5.55268         1.26231
   H        0.44492        -3.79368         2.58571
   H        8.86782        -1.39206         1.94553
   H        7.65227         0.64432         3.23347
   H        0.31316        -1.89022         3.53590
   H        2.09492         0.44836         4.39200
   H       -1.38079        -1.07007         4.45571
   H       -5.32526        -1.08460         5.64063
   H       -5.39586        -0.30726         3.36537
   H       -5.16731        -2.07494         3.42709
   H       -3.08131        -0.12518         2.81674
   H       -3.65575        -1.32726         1.85820
   H       -2.98523        -2.09096         6.43350
   H       -2.89728        -2.57538         4.71940
   H       -5.07610        -3.27414         6.52686
   H       -4.00741        -4.28304         5.80230
   H       -6.44617         0.81054         6.09841
   H       -6.82518         2.72520         7.66535
   H       -5.47763         4.81769         7.51472
   H       -3.08931         4.41356         7.08328
   H       -0.76065         3.54319         6.26778
   H        1.14665         2.27443         5.36695
   H       -8.10683         2.95802         5.63261
   H       -5.72626         4.63591         4.71106
   H      -13.43407         4.53990         0.52190
   H      -11.86908         6.20675        -0.91058
   H       -5.20089         5.93899         3.07184
   H       -6.50312         7.34493         0.68372
   H       -0.97915         8.49747         3.41761
   H       -4.84093         8.83922        -0.57079
   H        0.61651        10.43121         3.05660
   H        0.06686        12.06605         0.52933
   H        1.34322        12.42113         1.80890
*
