# ORCA input file
# SCF done       -244.534330942813          0.000571614250
! CAM-B3LYP def2-SVP def2/J RIJCOSX Grid4 TightSCF
%maxcore 5000
%tddft
    Mode sTDDFT
    Ethresh 5.0
    maxcore 5000
end

%pal
  nprocs 6
  end
* xyz 0 1
   C       12.60295       -12.99659        10.28907
   C       13.09189       -13.94893        11.13927
   F       12.59156       -14.04454        12.38548
   C       14.10586       -14.84091        10.76569
   C       14.62756       -14.75807         9.50452
   C       14.16142       -13.79448         8.58725
   C       13.12805       -12.89798         8.98604
   C       12.63804       -11.92676         8.08125
   C       13.16899       -11.85482         6.82230
   C       14.21483       -12.74106         6.43599
   C       14.69997       -13.69307         7.28450
   C       14.63802       -12.41931         5.05922
   O       15.46594       -12.98982         4.38418
   C       13.87149       -11.20176         4.68482
   C       12.85595       -10.98564         5.68847
   C       11.68479       -10.28333         5.53591
   C       11.30113        -9.64547         4.34048
   N       10.92872        -9.15506         3.37173
   C       10.68818       -10.20487         6.52997
   N        9.86060       -10.11995         7.32062
   C       14.23378       -10.52078         3.55775
   C       13.93502        -9.20697         3.13595
   S       13.85397        -8.91055         1.41972
   C       13.40829        -7.25370         1.66576
   C       13.42196        -6.93469         3.01811
   C       13.72187        -8.02687         3.84320
   C       13.99668        -7.86582         5.30492
   C       13.40081        -6.56394         5.85633
   C       11.96340        -6.66127         5.94680
   N       10.82636        -6.74453         6.02347
   C       13.80807        -5.38602         4.95169
   O       15.21983        -5.37401         4.93005
   C       15.79789        -4.18903         4.44523
   C       13.17025        -5.56580         3.56755
   C       13.10754        -6.46435         0.51751
   C       12.33110        -5.35911         0.50387
   C       12.02342        -4.54742        -0.64553
   C       12.69933        -4.64043        -1.84130
   C       12.35552        -3.79930        -2.91796
   C       12.88581        -3.69323        -4.19827
   C       13.98202        -4.55687        -4.73224
   C       13.42611        -5.69928        -5.62980
   N       12.69410        -5.30373        -6.81104
   C       15.10414        -3.76931        -5.42383
   N       15.75105        -2.91849        -4.44085
   C       12.13207        -2.65548        -4.87420
   C       12.18795        -2.13733        -6.11747
   C       11.28312        -1.04579        -6.57020
   C       10.29714        -0.57670        -5.54323
   C       10.23846        -1.10836        -4.31059
   C       11.12841        -2.13882        -3.92513
   C       11.27565        -2.83758        -2.74817
   C       10.59666        -2.76023        -1.50863
   C       10.96635        -3.58365        -0.49963
   C       10.51286        -1.40026        -7.81582
   C       10.33420        -2.64047        -8.27773
   C        9.56812        -2.96561        -9.44299
   S        8.63014        -1.77226       -10.27216
   C        8.06384        -2.94218       -11.43328
   C        8.61754        -4.19329       -11.17200
   C        9.45135        -4.20771       -10.04642
   C       10.11698        -5.45526        -9.56000
   C       10.22187        -6.48355       -10.69471
   C       11.16737        -6.03707       -11.68849
   N       11.91434        -5.66953       -12.47157
   C        8.83439        -6.69839       -11.33076
   O        7.97980        -7.12301       -10.28963
   C        6.82902        -7.81064       -10.70742
   C        8.36087        -5.40525       -12.01231
   C        7.19904        -2.61715       -12.50372
   C        6.48378        -1.47174       -12.69035
   C        6.28805        -0.45090       -11.73667
   C        5.75652         0.78879       -11.94965
   C        5.20053         1.56440       -10.81309
   O        5.35615         1.33675        -9.63337
   C        4.38616         2.62938       -11.43191
   C        3.57589         3.54965       -10.83308
   C        2.85619         4.46235       -11.63671
   C        2.98999         4.39952       -13.05419
   C        2.26435         5.30727       -13.84971
   C        1.45231         6.22744       -13.24739
   C        1.30831         6.30618       -11.85572
   C        2.00472         5.43173       -11.06860
   F        0.75861         7.09609       -14.00609
   C        3.84340         3.43970       -13.64764
   C        4.53492         2.57092       -12.84820
   C        5.49391         1.51533       -13.16877
   C        6.16467         1.38000       -14.35777
   C        7.29205         0.55024       -14.53044
   N        8.24655        -0.06300       -14.70583
   C        5.87907         2.13998       -15.50960
   N        5.67044         2.71720       -16.47999
   H       11.81833       -12.32891        10.60914
   H       14.45191       -15.57160        11.47943
   H       15.40967       -15.43419         9.19334
   H       11.86019       -11.25728         8.41253
   H       15.48729       -14.36038         6.96737
   H       14.87278       -11.08903         2.88613
   H       15.08243        -7.81366         5.43592
   H       13.63128        -8.71147         5.88665
   H       13.79443        -6.39141         6.86492
   H       13.44022        -4.44101         5.38889
   H       16.86721        -4.28033         4.62609
   H       15.41102        -3.31243         4.97915
   H       15.62769        -4.05529         3.37153
   H       13.55472        -4.81116         2.87800
   H       12.09223        -5.40909         3.67669
   H       13.50458        -6.85089        -0.41167
   H       11.83673        -5.06041         1.41634
   H       13.50965        -5.34393        -1.95588
   H       14.45403        -5.04802        -3.87599
   H       12.75194        -6.30919        -5.02205
   H       14.26228        -6.32631        -5.95014
   H       11.90087        -4.73250        -6.53899
   H       13.28618        -4.76535        -7.43425
   H       14.71955        -3.20991        -6.29132
   H       15.85498        -4.47568        -5.79296
   H       15.07894        -2.26740        -4.04737
   H       16.50084        -2.38366        -4.86423
   H       12.89989        -2.46886        -6.86080
   H       11.92723        -0.18938        -6.83492
   H        9.62160         0.20416        -5.85544
   H        9.51290        -0.75385        -3.59309
   H        9.79712        -2.04526        -1.38239
   H       10.45789        -3.53737         0.45269
   H       10.04217        -0.56672        -8.31955
   H       10.78368        -3.48315        -7.77291
   H        9.51227        -5.89823        -8.76397
   H       11.11054        -5.24813        -9.15876
   H       10.57669        -7.43501       -10.28371
   H        8.90189        -7.49189       -12.09471
   H        7.08798        -8.67362       -11.33304
   H        6.13900        -7.16611       -11.26323
   H        6.33815        -8.15584        -9.79979
   H        7.29509        -5.48864       -12.23560
   H        8.89263        -5.29844       -12.96354
   H        7.13993        -3.36798       -13.28085
   H        5.96494        -1.36655       -13.63420
   H        6.45916        -0.69325       -10.69292
   H        3.48286         3.58094        -9.75778
   H        2.35300         5.27744       -14.92447
   H        0.65265         7.05306       -11.43699
   H        1.91004         5.47250        -9.99385
   H        3.92108         3.41092       -14.72302
*
