# ORCA input file
# SCF done       -180.946236995790          0.000659628595
! CAM-B3LYP def2-SVP def2/J RIJCOSX Grid4 TightSCF
%maxcore 5000
%tddft
    Mode sTDDFT
    Ethresh 5.0
    maxcore 5000
end

%pal
  nprocs 6
  end
* xyz 0 1
   C       -8.03439        -0.54324         2.05247
   C       -8.84177        -0.95731         3.10939
   C       -9.57483        -2.12881         3.03522
   C       -9.54119        -2.92282         1.89342
   C       -8.75655        -2.51160         0.83492
   C       -7.99316        -1.32284         0.91558
   C       -7.21067        -1.23317        -0.31818
   C       -6.01848        -0.57574        -0.45661
   C       -5.55206         0.38299         0.46658
   N       -5.14434         1.18321         1.18083
   C       -5.04242        -0.91540        -1.42137
   N       -4.15964        -1.25437        -2.07300
   C       -7.72064        -2.25885        -1.21170
   C       -8.57244        -3.07059        -0.49325
   C       -9.20566        -4.27726        -0.98619
   C       -9.67361        -4.34024        -2.31422
   N      -10.09108        -4.37938        -3.38251
   C       -9.31191        -5.39586        -0.28159
   N       -9.54004        -6.37349         0.36708
   C       -7.33212        -2.49642        -2.56829
   C       -6.88602        -1.62108        -3.47135
   C       -6.31807        -1.72777        -4.81410
   C       -6.17849        -0.39630        -5.04271
   S       -6.81713         0.18703        -3.49935
   C       -5.99207        -2.91798        -5.57363
   C       -5.68812        -2.89228        -6.87283
   C       -6.07728        -4.17265        -4.79145
   C       -7.04174        -5.10510        -5.07910
   C       -7.28865        -6.14851        -4.16293
   C       -8.27223        -7.14002        -4.15296
   C       -9.18487        -7.46372        -5.27751
   C       -8.91410        -8.89409        -5.79181
   N       -9.51607        -9.06711        -7.09993
   C      -10.67731        -7.22063        -4.93576
   N      -11.27834        -8.30427        -4.17493
   C       -8.17913        -7.80346        -2.86760
   C       -8.95745        -8.77203        -2.30058
   C       -8.67815        -9.23803        -0.98043
   C       -7.58777        -8.65919        -0.27519
   C       -6.79310        -7.69189        -0.85268
   C       -7.07721        -7.23659        -2.13631
   C       -6.51587        -6.21837        -2.94511
   C       -5.45354        -5.33422        -2.74378
   C       -5.24320        -4.32770        -3.65380
   C       -9.51077       -10.23829        -0.46603
   C       -9.38546       -10.88795         0.76387
   C      -10.24073       -11.86241         1.16102
   C      -10.37357       -12.80742         2.25081
   C      -11.41483       -13.52443         1.73122
   S      -11.63101       -12.57272         0.26269
   C       -9.59880       -13.00123         3.45752
   C       -8.84500       -12.05275         4.02993
   C       -9.77724       -14.31713         4.06425
   C       -8.82500       -15.15834         4.50897
   C       -9.09434       -16.34596         5.33017
   C      -10.25885       -17.05915         5.36317
   C      -11.37800       -16.79076         4.54500
   N      -12.30547       -16.63036         3.88784
   C      -10.46699       -18.19368         6.17720
   N      -10.69343       -19.11612         6.82059
   C       -7.87027       -16.63301         6.05443
   C       -6.83665       -15.80199         5.55815
   C       -5.55802       -15.87841         6.08989
   C       -5.31762       -16.78415         7.11042
   C       -6.32972       -17.60473         7.59319
   C       -7.61207       -17.53908         7.07318
   C       -7.36748       -14.99065         4.47701
   C       -6.64142       -14.36088         3.50809
   C       -5.23320       -14.25856         3.52576
   N       -4.09372       -14.12710         3.49952
   C       -7.18146       -13.81895         2.32139
   N       -7.52375       -13.42489         1.29933
   H       -7.47404         0.37522         2.12523
   H       -8.89472        -0.34966         3.99973
   H      -10.18682        -2.42993         3.87221
   H      -10.11405        -3.83675         1.83758
   H       -7.43638        -3.52208        -2.89237
   H       -5.79445         0.20756        -5.83915
   H       -5.66067        -1.97233        -7.42998
   H       -5.44564        -3.79528        -7.40504
   H       -7.66358        -4.98824        -5.95349
   H       -8.94899        -6.78898        -6.10515
   H       -9.25239        -9.62180        -5.04060
   H       -7.83312        -9.01245        -5.90914
   H      -10.52641        -9.11138        -7.03498
   H       -9.19060        -9.91961        -7.53885
   H      -11.20260        -7.03484        -5.88326
   H      -10.73118        -6.30660        -4.34093
   H      -11.57991        -9.05622        -4.78479
   H      -12.08738        -7.97442        -3.66399
   H       -9.81284        -9.16561        -2.82861
   H       -8.96123        -7.21163         0.42277
   H       -7.34690        -9.01955         0.71385
   H       -5.96259        -7.27415        -0.30087
   H       -4.83136        -5.41710        -1.86480
   H       -4.46038        -3.60199        -3.48831
   H      -10.33263       -10.56328        -1.09226
   H       -8.56123       -10.64758         1.41984
   H      -11.98594       -14.37939         2.03242
   H       -8.78606       -11.05948         3.62577
   H       -8.30950       -12.23769         4.94583
   H      -10.81218       -14.60612         4.18923
   H       -4.76554       -15.24325         5.72860
   H       -4.32809       -16.85129         7.53585
   H       -6.11629       -18.30326         8.38761
   H       -8.38910       -18.17718         7.46154
*
