# ORCA input file
# SCF done       -211.059094976996          0.000637382324
! CAM-B3LYP def2-SVP def2/J RIJCOSX Grid4 TightSCF
%maxcore 5000
%tddft
    Mode sTDDFT
    Ethresh 5.0
    maxcore 5000
end

%pal
  nprocs 6
  end
* xyz 0 1
   C        1.05922         0.25001        -1.60470
   C        2.37113         0.08964        -1.94578
   C        3.02460        -1.16130        -2.01102
   N        3.60936        -2.14611        -2.07507
   C        3.25134         1.14061        -2.28739
   N        4.01372         1.94134        -2.59394
   C        0.11130        -0.80789        -1.28674
   C       -1.15353        -0.22616        -0.97277
   C       -2.24114        -0.99102        -0.65474
   C       -2.11447        -2.39660        -0.63859
   C       -0.85437        -2.98657        -0.95130
   C        0.25386        -2.17162        -1.27350
   C       -0.74098        -4.39197        -0.93739
   C       -1.81856        -5.17780        -0.63127
   C       -3.05801        -4.59606        -0.32326
   C       -3.20294        -3.23529        -0.32612
   C       -1.06156         1.23123        -1.07279
   O       -1.92455         2.05537        -0.85519
   C        0.34011         1.51658        -1.51034
   C        0.77830         2.75692        -1.77769
   C       -0.07462         3.93713        -1.68234
   C        0.19118         4.93871        -0.74790
   C        1.29418         4.81630         0.22247
   O        2.01418         3.87380         0.37356
   S        1.38582         6.32357         1.17325
   C       -0.00585         7.08282         0.30836
   O       -0.32997         8.21222         0.50741
   C       -0.56332         6.10617        -0.65113
   C       -1.69907         6.30974        -1.45210
   C       -1.99762         5.27643        -2.36274
   C       -1.18744         4.15559        -2.50187
   C       -1.61944         3.20262        -3.55005
   O       -1.04469         2.22933        -3.93715
   S       -3.18635         3.74465        -4.20593
   C       -3.23808         5.21111        -3.16508
   O       -4.18127         5.93972        -3.13615
   C       -2.49798         7.50802        -1.34324
   S       -2.97082         8.44812        -2.74310
   C       -3.79489         9.65935        -1.78242
   C       -3.68672         9.31990        -0.46530
   C       -2.94691         8.14000        -0.22024
   O       -2.92104         7.89060         1.10560
   C       -3.61948         8.96679         1.71022
   O       -4.07266         9.86229         0.70868
   C       -4.53344        10.74287        -2.38741
   C       -5.84995        11.04231        -1.99863
   C       -6.64873        10.28194        -1.01409
   O       -6.39000         9.25722        -0.46333
   S       -8.23230        11.11680        -0.77498
   C       -7.89171        12.35018        -2.01777
   O       -8.63530        13.23804        -2.31525
   C       -6.55826        12.08707        -2.58872
   C       -6.05233        12.85058        -3.64141
   C       -4.74999        12.53580        -4.04408
   C       -4.00125        11.54950        -3.41284
   C       -2.58727        11.51316        -3.84409
   O       -1.68717        10.88065        -3.38477
   S       -2.35580        12.68284        -5.19109
   C       -4.04918        13.24194        -5.14075
   O       -4.49962        14.04713        -5.89966
   C       -6.86544        13.88695        -4.26936
   C       -6.55510        15.19165        -4.21954
   C       -7.24672        16.32249        -4.82993
   C       -8.40702        16.26784        -5.54680
   C       -9.04275        17.39643        -6.11089
   N       -9.60455        18.27544        -6.58804
   C       -9.12636        15.08535        -5.83011
   N       -9.74889        14.16455        -6.11480
   C       -6.45937        17.51287        -4.54434
   C       -5.32703        17.14911        -3.75528
   C       -5.34937        15.70763        -3.50070
   O       -4.56818        15.04590        -2.85041
   C       -4.40114        18.07123        -3.35357
   C       -4.56473        19.42172        -3.72987
   C       -5.69304        19.79393        -4.51854
   C       -6.63570        18.82036        -4.91791
   C       -5.84397        21.14511        -4.89234
   C       -4.92592        22.08406        -4.50775
   C       -3.81614        21.71673        -3.73126
   C       -3.63938        20.41433        -3.35013
   H       -3.18807        -0.52593        -0.42374
   H        1.19212        -2.64862        -1.50842
   H        0.21459        -4.83536        -1.17532
   H       -1.72239        -6.25303        -0.62545
   H       -3.89719        -5.23190        -0.08461
   H       -4.15446        -2.78183        -0.09056
   H        1.80670         2.94329        -2.05772
   H       -4.48476         8.57296         2.26354
   H       -2.94428         9.49887         2.39590
   H       -7.76180        13.53974        -4.76627
   H       -3.55158        17.76987        -2.75879
   H       -7.47632        19.13336        -5.51659
   H       -6.69942        21.42305        -5.49007
   H       -5.04925        23.11588        -4.80024
   H       -3.10200        22.47112        -3.43734
   H       -2.78698        20.12563        -2.75300
*
