# ORCA input file
# SCF done       -172.315277196942          0.000374730678
! CAM-B3LYP def2-SVP def2/J RIJCOSX Grid4 TightSCF
%maxcore 5000
%tddft
    Mode sTDDFT
    Ethresh 5.0
    maxcore 5000
end

%pal
  nprocs 6
  end
* xyz 0 1
   C        1.68202         3.02324         6.15544
   C        1.05895         4.10515         5.57013
   C        0.30391         3.97220         4.40034
   C        0.27271         2.70977         3.76853
   C        0.89255         1.62180         4.37951
   C        1.57663         1.76948         5.56949
   N       -0.31273         2.53570         2.50550
   C       -0.03873         3.45078         1.48499
   C        1.20162         4.08441         1.42341
   C        1.46105         5.01251         0.43433
   C        0.49676         5.32001        -0.51125
   C       -0.73337         4.68566        -0.46061
   C       -1.00445         3.75975         0.52689
   C       -1.12372         1.42202         2.26654
   C       -1.97383         0.94749         3.26506
   C       -2.78019        -0.14935         3.02925
   C       -2.75613        -0.78608         1.79961
   C       -1.91206        -0.31933         0.80516
   C       -1.09747         0.77175         1.03288
   C       -0.43979         5.11540         3.91935
   C       -1.64211         5.03047         3.30388
   C       -2.38404         6.11779         2.79906
   C       -3.58335         5.95092         2.16131
   C       -4.41002         6.93760         1.56721
   C       -5.54271         6.45013         0.99072
   C       -5.68483         5.04756         1.09951
   S       -4.32112         4.36477         1.95583
   C       -6.71061         4.24547         0.64486
   C       -7.87915         4.61137        -0.05821
   C       -8.70043         3.56435        -0.34377
   C       -8.23843         2.30506         0.12170
   S       -6.69190         2.51465         0.92393
   C       -8.90594         1.11634        -0.01995
   C       -8.52005        -0.15420         0.44939
   C       -7.39579        -0.56229         1.13110
   C       -7.39136        -1.93202         1.45609
   C       -8.56015        -2.60490         0.99951
   S       -9.62604        -1.50256         0.17328
   C       -8.77587        -3.94392         1.21408
   C       -7.79826        -4.66401         1.91038
   C       -6.62711        -3.99176         2.36273
   C       -6.41361        -2.65220         2.15115
   S       -5.56362        -5.09013         3.19700
   C       -6.68478        -6.43208         2.95262
   C       -7.80207        -6.02859         2.25636
   C       -6.32601        -7.68815         3.47598
   C       -7.04808        -8.85414         3.45248
   C       -6.62253       -10.08573         4.01271
   C       -7.51460       -11.10642         3.88258
   C       -8.70144       -10.74649         3.20992
   S       -8.64114        -9.05890         2.74442
   C       -9.79551       -11.53966         2.92095
   C       -9.98826       -12.90337         3.22604
   C      -11.18493       -13.39881         2.80147
   C      -12.00445       -12.45584         2.13821
   S      -11.19193       -10.90356         2.07421
   C      -13.25253       -12.69852         1.61319
   C      -14.08862       -11.79525         0.95497
   S      -13.70988       -10.10782         0.66121
   C      -15.21309        -9.76895        -0.15699
   C      -15.98697       -10.92843        -0.20318
   C      -15.35340       -12.04055         0.41560
   N      -16.20840       -13.08470         0.29658
   N      -17.33114       -12.72092        -0.34707
   C      -17.22736       -11.45342        -0.65417
   C      -15.45611        -8.45241        -0.64311
   C      -16.56082        -8.05817        -1.28435
   H        2.24285         3.15018         7.06911
   H        1.11472         5.07752         6.03866
   H        0.84458         0.65742         3.89441
   H        2.05151         0.91401         6.02583
   H        1.95921         3.84388         2.15517
   H        2.42716         5.49456         0.39783
   H        0.70344         6.04690        -1.28221
   H       -1.49425         4.92083        -1.19058
   H       -1.96964         3.27758         0.56769
   H       -1.99843         1.44661         4.22319
   H       -3.43578        -0.50326         3.81166
   H       -3.38377        -1.64431         1.61320
   H       -1.88189        -0.81542        -0.15382
   H       -0.43119         1.12592         0.25997
   H       -0.02293         6.09119         4.13563
   H       -2.10166         4.05855         3.18080
   H       -1.98187         7.11780         2.88713
   H       -4.13507         7.97776         1.58461
   H       -6.27989         7.05589         0.49416
   H       -8.08087         5.63189        -0.33108
   H       -9.63469         3.65092        -0.87032
   H       -9.85360         1.16044        -0.54136
   H       -6.58795         0.09445         1.39585
   H       -9.66926        -4.43586         0.86378
   H       -5.52749        -2.15568         2.51252
   H       -8.60773        -6.68922         1.99498
   H       -5.36243        -7.73718         3.96716
   H       -5.66589       -10.17312         4.49722
   H       -7.35125       -12.10292         4.25216
   H       -9.24554       -13.48052         3.74688
   H      -11.50662       -14.41568         2.94459
   H      -13.63467       -13.70650         1.72032
   H      -16.10222       -14.03246         0.61563
   H      -18.02391       -10.96489        -1.17675
   H      -14.65865        -7.74419        -0.45841
   H      -17.37307        -8.73305        -1.48532
   H      -16.67561        -7.04401        -1.62263
*
