# ORCA input file
# SCF done       -157.373376015463          0.000774440585
! CAM-B3LYP def2-SVP def2/J RIJCOSX Grid4 TightSCF
%maxcore 5000
%tddft
    Mode sTDDFT
    Ethresh 5.0
    maxcore 5000
end

%pal
  nprocs 6
  end
* xyz 0 1
   C       -1.45951        -2.76214        -2.50518
   C       -0.41462        -2.71194        -1.62522
   C       -0.13739        -3.99854        -1.04649
   C       -0.95579        -4.98175        -1.49861
   S       -2.08294        -4.35460        -2.63955
   C        0.95354        -3.90150        -0.07808
   O        1.32425        -4.73038         0.71235
   C        1.36834        -2.44985        -0.13767
   C        0.55786        -1.75524        -1.13950
   C        0.83568        -0.50535        -1.60566
   N        0.06835         0.24144        -2.55231
   O       -1.09498        -0.05952        -2.71614
   O        0.64687         1.13961        -3.12431
   N        2.05477         0.21573        -1.21359
   O        3.10266        -0.27775        -1.54224
   O        1.89967         1.23344        -0.58915
   C        2.23049        -1.91641         0.75377
   C        3.15200        -2.73784         1.49048
   C        3.96971        -3.76808         1.04533
   C        4.11069        -4.26826        -0.33101
   O        3.29059        -4.13142        -1.20499
   O        5.28604        -4.85941        -0.52511
   C        4.73698        -4.08679         2.20296
   N        4.38434        -3.31768         3.20655
   O        3.43923        -2.47730         2.76822
   C        5.73869        -5.11150         2.37849
   C        6.84914        -5.11835         3.19502
   C        7.32355        -3.96848         3.98402
   O        7.37620        -2.84341         3.56781
   O        7.69376        -4.31352         5.22133
   C        7.39536        -6.42718         2.99556
   N        6.63977        -7.08809         2.13870
   O        5.62446        -6.29165         1.76794
   C        8.56297        -7.04734         3.54379
   S        9.62523        -6.24582         4.67658
   C       10.61615        -7.63167         4.75205
   C       10.14600        -8.66348         3.94086
   C        8.98321        -8.33249         3.25194
   C       11.06287        -9.80803         4.09736
   O       11.00980       -10.88546         3.55837
   C       12.09945        -9.32188         5.09828
   C       11.79635        -8.03313         5.44876
   C       13.17846       -10.09277         5.59545
   C       13.44774       -11.37176         5.23265
   C       14.51012       -12.14613         5.76513
   C       14.82083       -13.43967         5.43407
   C       15.92295       -13.96550         6.14730
   C       16.46542       -13.01861         7.05782
   S       15.59720       -11.51045         6.99463
   C       17.53901       -13.30536         7.87142
   C       18.10077       -14.57729         7.78555
   C       17.56198       -15.52291         6.87443
   C       16.48975       -15.23807         6.05898
   S       18.43098       -17.03383         6.95324
   C       19.47603       -16.39427         8.17651
   C       19.19938       -15.11767         8.51497
   H       -1.91585        -1.96547        -3.05783
   H       -0.95844        -6.02241        -1.24307
   H        2.28666        -0.85760         0.96878
   H        5.36030        -5.18114        -1.43773
   H        7.98838        -3.53106         5.71444
   H        8.44538        -8.96717         2.57297
   H       12.34492        -7.41816         6.13867
   H       13.81651        -9.60869         6.32719
   H       12.82402       -11.86313         4.49932
   H       14.27020       -14.00055         4.69984
   H       17.93484       -12.57313         8.55725
   H       16.09333       -15.97001         5.37339
   H       20.24552       -17.02879         8.57152
   H       19.74470       -14.56131         9.25605
*
