# ORCA input file
# SCF done       -181.630030080783          0.000547633068
! CAM-B3LYP def2-SVP def2/J RIJCOSX Grid4 TightSCF
%maxcore 5000
%tddft
    Mode sTDDFT
    Ethresh 5.0
    maxcore 5000
end

%pal
  nprocs 6
  end
* xyz 0 1
   C        4.81120        -8.07408        10.01172
   C        4.63320        -7.83040         8.68285
   C        5.80448        -8.14353         7.91299
   C        6.83752        -8.60113         8.66244
   S        6.39399        -8.67100        10.32783
   C        5.54794        -7.88102         6.49362
   O        6.31366        -8.03960         5.56264
   C        4.14124        -7.44625         6.43897
   C        3.63100        -7.28219         7.78497
   C        2.49061        -6.59393         8.11130
   N        1.90614        -6.55288         9.41072
   O        2.13964        -7.47746        10.16556
   O        1.21868        -5.59185         9.68093
   N        1.80773        -5.74843         7.14508
   O        0.61190        -5.87623         7.04706
   O        2.49526        -4.98243         6.50774
   C        3.37122        -7.42180         5.29587
   C        3.75463        -7.50108         3.95691
   S        5.40754        -7.45370         3.34723
   C        4.83122        -7.48118         1.74822
   C        3.42412        -7.55914         1.67098
   C        2.82069        -7.55849         2.90373
   C        3.05915        -7.61028         0.24272
   O        1.97200        -7.69262        -0.26885
   C        4.38825        -7.54330        -0.48256
   C        5.39932        -7.47667         0.44637
   C        4.41858        -7.55965        -1.89541
   C        5.53675        -7.43530        -2.65728
   C        5.55527        -7.45666        -4.07619
   C        4.52963        -7.67789        -4.96218
   C        4.92792        -7.62847        -6.31534
   C        6.31725        -7.34926        -6.45558
   S        7.08058        -7.17262        -4.90381
   C        6.92928        -7.24198        -7.68345
   C        6.14408        -7.42404        -8.82234
   C        4.75863        -7.71573        -8.68344
   C        4.14432        -7.81655        -7.45695
   S        3.99328        -7.91238       -10.23599
   C        5.51205        -7.59828       -11.05243
   C        6.53626        -7.36148       -10.18034
   C        5.56541        -7.60235       -12.47709
   S        7.03064        -7.21664       -13.31426
   C        6.25906        -7.39630       -14.86044
   C        7.01631        -7.24754       -16.10925
   O        6.53434        -7.45860       -17.19571
   O        8.29172        -6.85702       -15.99880
   C        4.92522        -7.75893       -14.71189
   C        4.55402        -7.89033       -13.35923
   C        3.97077        -7.99884       -15.77429
   C        3.72969        -7.26202       -16.87112
   C        4.31621        -5.99546       -17.32133
   C        4.63912        -4.95834       -16.49755
   N        5.22138        -3.71197       -16.90148
   O        5.04201        -2.76678       -16.16595
   O        5.83227        -3.67760       -17.94665
   N        4.36926        -5.01299       -15.07097
   O        5.28392        -4.72828       -14.33306
   O        3.26578        -5.35803       -14.72381
   C        4.26869        -6.03770       -18.76508
   C        4.76692        -5.34652       -19.83367
   S        4.19760        -5.99807       -21.31321
   C        3.27653        -7.22000       -20.52019
   C        3.41693        -7.12426       -19.17448
   C        2.95771        -7.87566       -18.00343
   O        2.20216        -8.80947       -17.93623
   H        4.11218        -7.97779        10.81821
   H        7.81926        -8.89468         8.34904
   H        2.29499        -7.37841         5.42521
   H        1.75953        -7.59042         3.07516
   H        6.45344        -7.42645         0.24458
   H        3.45059        -7.66778        -2.36628
   H        6.49479        -7.29806        -2.17462
   H        3.51776        -7.87699        -4.65988
   H        7.98159        -7.02396        -7.77092
   H        3.09154        -8.03225        -7.37031
   H        7.54137        -7.14665       -10.49888
   H        8.56833        -6.66926       -15.09144
   H        3.55727        -8.14261       -13.04471
   H        3.37917        -8.90285       -15.67136
   H        5.45418        -4.52460       -19.84242
   H        2.70090        -7.92359       -21.08768
*
