# ORCA input file
# SCF done       -168.498633286247          0.000660631279
! CAM-B3LYP def2-SVP def2/J RIJCOSX Grid4 TightSCF
%maxcore 5000
%tddft
    Mode sTDDFT
    Ethresh 5.0
    maxcore 5000
end

%pal
  nprocs 6
  end
* xyz 0 1
   C       -5.36178        -2.75348        -0.51541
   C       -4.57828        -2.44916         0.57137
   C       -4.08076        -3.40351         1.48152
   N       -3.63635        -4.13126         2.25092
   C       -4.16039        -1.15262         0.93214
   N       -3.78451        -0.12910         1.29396
   C       -5.83537        -4.08486        -0.87343
   C       -6.63177        -3.98988        -2.04103
   C       -7.22813        -5.08051        -2.62411
   C       -7.03917        -6.32785        -2.01975
   C       -6.24159        -6.41480        -0.85389
   C       -5.63207        -5.31207        -0.26854
   S       -6.13507        -8.04937        -0.27380
   C       -7.15130        -8.58540        -1.58580
   C       -7.55022        -7.59377        -2.41689
  Br       -7.58676       -10.40301        -1.73508
   C       -6.68485        -2.58653        -2.48890
   O       -7.13371        -2.18146        -3.53631
   C       -5.91780        -1.81550        -1.46773
   C       -5.68164        -0.47428        -1.54005
   C       -6.45288         0.41716        -2.32621
   O       -5.90817         1.60059        -2.72993
   C       -7.77492         0.39011        -2.73109
   C       -9.03888        -0.35382        -2.62693
   O       -9.32376        -1.36079        -2.03435
   N       -9.93499         0.42997        -3.34839
   C       -9.41602         1.61910        -3.85915
   O      -10.04047         2.43501        -4.48557
   C       -8.01568         1.59278        -3.43045
   C       -6.83299         2.31391        -3.41969
   C       -6.52405         3.57241        -3.99879
   C       -5.32347         4.18401        -3.87838
   C       -5.03086         5.43180        -4.50537
   C       -3.87927         6.12564        -4.42359
   C       -2.69306         5.75078        -3.60810
   C       -3.74143         7.41733        -5.19824
   N       -3.92921         8.57810        -4.35187
   C       -2.95308         9.28178        -3.74555
   C       -1.61278         9.06857        -3.86837
   C       -0.62549         9.85387        -3.25296
   C        0.70785         9.52593        -3.31260
   C        1.82175        10.20306        -2.76711
   C        3.01739         9.57815        -2.97930
   C        2.90656         8.36816        -3.69565
   S        1.24618         8.05686        -4.12003
   C        3.87820         7.44722        -4.05241
   C        5.26915         7.45576        -3.83805
   C        5.90173         6.34423        -4.31452
   C        5.04034         5.39630        -4.92414
   S        3.39451         5.98478        -4.88262
   C        5.42632         4.19363        -5.46488
   C        4.60837         3.20889        -6.05017
   S        5.35961         1.75684        -6.70650
   C        3.87541         1.04563        -7.20695
   C        2.82608         1.87454        -6.89180
   C        3.24115         3.08383        -6.24523
   O        2.16809         3.85185        -5.95401
   C        1.08762         3.16175        -6.40097
   N       -0.18212         3.73584        -6.22435
   O       -1.13817         3.09704        -6.63288
   O       -0.26311         4.82461        -5.68205
   C        1.41138         1.95927        -6.97855
   H       -7.82890        -4.97194        -3.51304
   H       -5.03110        -5.43215         0.61722
   H       -8.17880        -7.74594        -3.27517
   H       -4.87563        -0.02228        -0.97802
   H      -10.90231         0.16670        -3.47135
   H       -7.32968         4.02172        -4.56169
   H       -4.55331         3.69569        -3.30036
   H       -5.82612         5.82642        -5.12729
   H       -2.87779         4.88449        -2.98270
   H       -2.39485         6.58375        -2.97196
   H       -1.85082         5.53340        -4.26772
   H       -4.49349         7.46050        -5.99139
   H       -2.75260         7.47158        -5.65508
   H       -4.87795         8.74454        -4.05526
   H       -3.30588        10.09570        -3.12478
   H       -1.25223         8.23544        -4.45325
   H       -0.91506        10.73822        -2.70139
   H        1.70902        11.13043        -2.23282
   H        3.96618         9.94796        -2.63327
   H        5.76659         8.27088        -3.34293
   H        6.96068         6.16917        -4.24235
   H        6.48306         3.96428        -5.43956
   H        3.86932         0.08930        -7.68513
   H        0.72224         1.25464        -7.39529
*
