# ORCA input file
# SCF done       -198.414798113620          0.000747283097
! CAM-B3LYP def2-SVP def2/J RIJCOSX Grid4 TightSCF
%maxcore 5000
%tddft
    Mode sTDDFT
    Ethresh 5.0
    maxcore 5000
end

%pal
  nprocs 6
  end
* xyz 0 1
   C       -4.40291         6.90570        -5.17932
   C       -3.58414         6.10341        -5.92944
   C       -2.91535         6.52688        -7.09629
   N       -2.34318         6.81846        -8.04782
   C       -3.33939         4.74093        -5.65695
   N       -3.11922         3.62476        -5.50219
   C       -4.78100         8.27700        -5.48979
   C       -5.78080         8.69405        -4.57638
   C       -6.34697         9.94474        -4.62080
   C       -5.90676        10.82615        -5.61363
   C       -4.90343        10.40260        -6.51818
   C       -4.33033         9.13838        -6.47373
   S       -4.50095        11.65202        -7.65702
   C       -5.67159        12.71030        -6.91511
   C       -6.33013        12.15924        -5.86788
  Br       -5.91205        14.44300        -7.59145
   C       -6.06149         7.60729        -3.61505
   O       -6.82759         7.64988        -2.67828
   C       -5.13374         6.50561        -3.99020
   C       -4.89788         5.41508        -3.21614
   C       -5.67331         5.03856        -2.06421
   C       -5.00275         4.79845        -0.89238
   S       -6.01097         4.62293         0.47304
   C       -7.41626         4.76885        -0.54260
   C       -7.10618         4.95489        -1.89655
   C       -8.15652         4.95575        -2.84788
   C       -7.82056         4.88143        -4.31488
   C       -7.11277         3.56722        -4.65121
   C       -9.47793         4.92477        -2.41620
   C      -10.62178         5.05427        -3.38860
   C      -11.04630         3.70143        -3.96577
   C       -9.78406         4.77986        -1.04141
   C      -11.05471         4.69996        -0.35827
   C      -10.89828         4.57578         0.98780
   S       -9.26302         4.52795         1.52391
   C       -8.73027         4.69312        -0.11686
   C      -12.39308         4.70089        -0.93320
   C      -13.40300         5.40345        -0.41210
   N      -14.65872         5.46611        -0.96104
   C      -15.83102         5.80089        -0.17408
   C      -16.09054         4.79512         0.94787
   C      -17.43286         5.05010         1.63219
   N      -17.65258         3.98822         2.59833
   S      -18.56961         2.78446         1.77828
   N      -19.50364         3.93373         0.90883
   C      -18.61568         5.03818         0.58919
   C      -18.09502         4.83779        -0.83255
   C      -17.01435         5.86148        -1.17585
   N      -16.44268         5.59880        -2.48097
   S      -15.13961         4.51849        -2.30060
   C      -16.96898         5.92917        -3.67873
   C      -18.09427         6.63863        -3.97161
   C      -18.51918         6.94913        -5.29359
   C      -19.66022         7.68118        -5.36698
   C      -20.22007         8.01359        -4.10991
   S      -19.24012         7.34796        -2.82214
   C      -21.34668         8.75652        -3.83961
   C      -22.22792         9.37832        -4.75279
   C      -23.24235        10.06361        -4.16185
   C      -23.22636        10.02922        -2.74212
   S      -21.86704         9.06969        -2.18791
   C      -24.11705        10.65358        -1.91263
   C      -24.11767        10.65062        -0.50628
   S      -22.96939         9.79249         0.50781
   C      -23.67772        10.32701         1.98445
   C      -24.75869        11.13702         1.73319
   C      -24.99637        11.30978         0.33552
   O      -26.06085        12.11431         0.12109
   C      -26.50224        12.45543         1.36152
   N      -27.62369        13.30944         1.44894
   O      -27.99827        13.59933         2.57154
   O      -28.13226        13.69476         0.41731
   C      -25.76739        11.90372         2.37763
   H       -7.10644        10.23339        -3.91120
   H       -3.56468         8.86263        -7.17962
   H       -7.08251        12.67075        -5.29584
   H       -3.99686         4.83773        -3.38538
   H       -3.93738         4.81138        -0.75971
   H       -7.18778         5.71865        -4.61002
   H       -8.72209         4.94208        -4.91812
   H       -6.13916         3.50303        -4.17188
   H       -6.96442         3.48704        -5.72603
   H       -7.71052         2.72120        -4.31913
   H      -10.35198         5.73191        -4.19977
   H      -11.46381         5.51101        -2.86900
   H      -10.26940         3.29011        -4.60488
   H      -11.95506         3.80962        -4.55447
   H      -11.23100         2.98507        -3.16845
   H      -11.67969         4.47396         1.71537
   H      -12.59121         4.06292        -1.78210
   H      -13.27019         6.04306         0.44937
   H      -15.65907         6.79304         0.26153
   H      -15.29764         4.86328         1.69402
   H      -16.07974         3.77731         0.55500
   H      -17.39825         6.01256         2.15218
   H      -18.13905         4.30789         3.43041
   H      -20.31885         4.22271         1.43960
   H      -19.17253         5.97909         0.63595
   H      -18.92974         4.93933        -1.52566
   H      -17.70297         3.82460        -0.93197
   H      -17.44803         6.86515        -1.18574
   H      -16.37484         5.57977        -4.51325
   H      -17.95922         6.61037        -6.14727
   H      -20.12011         7.99368        -6.28680
   H      -22.08591         9.30423        -5.81614
   H      -24.00692        10.60177        -4.69339
   H      -24.91292        11.22638        -2.36970
   H      -23.26173        10.01866         2.92011
   H      -25.94075        12.04127         3.42457
*
