# ORCA input file
# SCF done       -179.830485607901          0.000776055921
! CAM-B3LYP def2-SVP def2/J RIJCOSX Grid4 TightSCF
%maxcore 5000
%tddft
    Mode sTDDFT
    Ethresh 5.0
    maxcore 5000
end

%pal
  nprocs 6
  end
* xyz 0 1
   C       -4.79663         1.47111         3.95875
   C       -5.43949         2.48444         4.62286
   C       -5.58702         2.54450         6.02463
   N       -5.73487         2.65637         7.15743
   C       -6.02148         3.61609         4.01539
   N       -6.51653         4.56294         3.59452
   C       -4.20072         0.29411         4.57945
   C       -3.58093        -0.49234         3.57673
   C       -2.93927        -1.67503         3.85173
   C       -2.91924        -2.11234         5.18003
   C       -3.53992        -1.32037         6.17651
   C       -4.18003        -0.11922         5.89944
   S       -3.39533        -2.04372         7.74934
   C       -2.51968        -3.38340         7.05711
   C       -2.34150        -3.29471         5.71743
  Br       -1.92195        -4.76978         8.16815
   C       -3.74401         0.16332         2.26803
   O       -3.17403        -0.11782         1.23946
   C       -4.61497         1.34939         2.52442
   C       -5.05531         2.20524         1.56157
   C       -5.07393         1.89915         0.17767
   O       -5.09427         2.91934        -0.72775
   C       -5.17728         0.70510        -0.51357
   C       -5.36993        -0.74844        -0.36631
   O       -5.51451        -1.43405         0.61028
   N       -5.43014        -1.20118        -1.67950
   C       -5.36141        -0.21006        -2.65918
   O       -5.41643        -0.40174        -3.84546
   C       -5.22631         1.02606        -1.88507
   C       -5.16663         2.40985        -1.98417
   C       -5.18414         3.23695        -3.12860
   C       -5.20961         4.59625        -3.08640
   C       -5.22721         5.41428        -4.23610
   O       -5.15186         4.83357        -5.48346
   C       -5.19111         5.84334        -6.36068
   C       -5.15728         6.10370        -7.73612
   C       -5.04543         5.16296        -8.86325
   O       -5.01862         5.50842       -10.02833
   N       -4.97227         3.86726        -8.48084
   C       -5.25461         7.51060        -7.82034
   O       -5.34069         8.08676        -6.57925
   C       -5.29825         7.07594        -5.69490
   C       -5.31737         6.80481        -4.33041
   C       -5.27050         8.30025        -8.97313
   C       -5.40535         9.66705        -8.98794
   C       -5.42329        10.48836       -10.14267
   C       -5.59035        11.81262        -9.87966
   C       -5.71712        12.10818        -8.50173
   S       -5.60135        10.64319        -7.54868
   C       -5.92062        13.34914        -7.93019
   C       -6.03176        14.59515        -8.59238
   C       -6.25126        15.64503        -7.75812
   C       -6.32874        15.29209        -6.38451
   S       -6.09788        13.56154        -6.20109
   C       -6.55940        16.16218        -5.35403
   C       -6.65763        15.86553        -3.98353
   S       -6.48364        14.27209        -3.26656
   C       -6.74592        14.82769        -1.66370
   C       -6.96334        16.18618        -1.64745
   C       -6.91070        16.75751        -2.95399
   O       -7.12838        18.08699        -2.90952
   C       -7.31969        18.37210        -1.59232
   N       -7.57614        19.72126        -1.24362
   O       -7.74217        19.95073        -0.06102
   O       -7.60835        20.54137        -2.13433
   C       -7.23380        17.27727        -0.77566
   H       -2.47947        -2.24979         3.06366
   H       -4.63633         0.44673         6.69426
   H       -1.82486        -4.03200         5.13059
   H       -5.43854         3.18277         1.82177
   H       -5.54590        -2.17849        -1.90747
   H       -5.18902         2.71579        -4.07388
   H       -5.22633         5.10685        -2.13513
   H       -4.99718         3.59039        -7.51560
   H       -4.89453         3.15914        -9.19090
   H       -5.38872         7.48718        -3.50978
   H       -5.17458         7.76179        -9.90491
   H       -5.31392        10.06546       -11.12509
   H       -5.63094        12.57795       -10.63333
   H       -5.94796        14.67990        -9.66050
   H       -6.36462        16.66590        -8.07691
   H       -6.69030        17.20735        -5.60360
   H       -6.72566        14.13663        -0.84698
   H       -7.35104        17.27411         0.28803
*
