# ORCA input file
# SCF done       -178.804835650455          0.000475716636
! CAM-B3LYP def2-SVP def2/J RIJCOSX Grid4 TightSCF
%maxcore 5000
%tddft
    Mode sTDDFT
    Ethresh 5.0
    maxcore 5000
end

%pal
  nprocs 6
  end
* xyz 0 1
   C        4.36560        -2.71280        10.76219
   C        5.16637        -2.74190         9.68998
   C        6.40852        -2.04374         9.50243
   C        6.99523        -2.26292         8.30812
   C        6.27114        -3.14998         7.45476
   S        4.80837        -3.69480         8.23968
   C        6.61866        -3.54942         6.18889
   C        7.76054        -3.17344         5.43434
   C        7.81484        -3.73118         4.20106
   C        6.71576        -4.58976         3.89446
   S        5.61921        -4.65847         5.26355
   C        6.51636        -5.18963         2.68355
   C        5.42133        -6.00877         2.28656
   C        4.54727        -6.88580         2.92513
   C        4.55906        -7.48407         4.26400
   O        3.58419        -7.94965         4.79102
   O        5.76352        -7.55352         4.86836
   C        3.64299        -7.27491         1.88062
   N        3.99131        -6.70231         0.74632
   O        5.07195        -5.93475         0.98273
   C        2.52405        -8.15345         1.96802
   C        1.73611        -8.41892         0.89361
   C        0.58007        -9.25681         0.86462
   C       -0.02542        -9.31321        -0.34467
   C        0.61996        -8.52754        -1.34179
   S        2.02766        -7.72104        -0.68931
   C        0.22649        -8.36421        -2.65281
   C       -0.88133        -8.94544        -3.31818
   C       -1.01022        -8.53594        -4.60619
   C        0.00344        -7.63338        -5.03956
   S        1.11917        -7.32534        -3.74621
   C       -0.00619        -7.01943        -6.27466
   C        0.91643        -6.15044        -6.86365
   O        0.45173        -5.37338        -7.86636
   C        1.45379        -4.55484        -8.28478
   C        2.60044        -4.81449        -7.56338
   C        2.29256        -5.85489        -6.65795
   C        3.20917        -6.59540        -5.85112
   O        2.99025        -7.66675        -5.31043
   C        4.60868        -5.95140        -5.69688
   F        4.53726        -4.66989        -5.29072
   F        5.36142        -6.60029        -4.81241
   F        5.29075        -5.93786        -6.85930
   C        1.22645        -3.60822        -9.31208
   C        0.02968        -3.45248        -9.94230
   C       -0.16013        -2.48035       -10.94564
   C       -1.33485        -2.26289       -11.61467
   C       -1.57820        -1.26956       -12.64201
   C       -0.69561        -0.33004       -13.11286
   C       -1.00427         0.61536       -14.11291
   N       -1.19076         1.41054       -14.92015
   C        0.63349        -0.15413       -12.67545
   N        1.72201         0.06226       -12.37872
   C       -2.95801        -1.42517       -13.09304
   C       -3.56418        -2.47012       -12.35478
   C       -2.58443        -3.03204       -11.40306
   O       -2.78662        -3.93861       -10.62223
   C       -4.86860        -2.85495       -12.54586
   C       -5.61358        -2.17717       -13.51625
   C       -4.99944        -1.13670       -14.25264
   C       -3.68030        -0.74667       -14.05751
   S       -6.09681        -0.43456       -15.40310
   C       -7.34804        -1.53299       -14.88493
   C       -6.96667        -2.38230       -13.90181
  Br       -9.04011        -1.45438       -15.69025
   H        4.61897        -2.11850        11.62252
   H        3.45142        -3.27657        10.80000
   H        6.80259        -1.40913        10.27623
   H        7.92656        -1.82394         7.99785
   H        8.50072        -2.49888         5.82516
   H        8.59877        -3.56024         3.48512
   H        7.18594        -4.92089         1.87790
   H        6.47446        -7.17812         4.33265
   H        2.31345        -8.58590         2.93434
   H        0.25018        -9.77543         1.74728
   H       -0.90997        -9.88664        -0.55606
   H       -1.54166        -9.64108        -2.83295
   H       -1.79106        -8.85575        -5.27319
   H       -0.90304        -7.16207        -6.86597
   H        3.54580        -4.33008        -7.69756
   H        2.07113        -2.98606        -9.57540
   H       -0.80283        -4.08260        -9.66699
   H        0.69893        -1.86854       -11.18966
   H       -5.30035        -3.65455       -11.96455
   H       -3.26053         0.05175       -14.64585
   H       -7.61096        -3.12343       -13.46523
*
