# ORCA input file
# SCF done       -167.563604477426          0.000522540210
! CAM-B3LYP def2-SVP def2/J RIJCOSX Grid4 TightSCF
%maxcore 5000
%tddft
    Mode sTDDFT
    Ethresh 5.0
    maxcore 5000
end

%pal
  nprocs 6
  end
* xyz 0 1
   C       10.03230       -18.82431         2.09802
   C        9.39050       -17.64777         2.04847
   C        8.01807       -17.37972         2.36429
   C        7.65688       -16.08368         2.21953
   C        8.70615       -15.23114         1.78159
   S       10.17952       -16.13942         1.55791
   C        8.63136       -13.87009         1.54988
   C        7.50614       -13.02922         1.69831
   C        7.74266       -11.71955         1.39938
   C        9.06534       -11.44179         0.99554
   S       10.00165       -12.93527         1.00979
   C        9.74613       -10.30493         0.60045
   C        9.43597        -8.94316         0.46293
   C        8.23134        -8.23740         0.75654
   C        8.09420        -6.80334         0.56480
   N        6.92868        -6.21507         0.85591
   C        5.92166        -6.92675         1.32531
   C        6.06324        -8.32446         1.52897
   N        7.19876        -8.92607         1.23671
   C        4.99919        -9.10400         2.04073
   N        4.13215        -9.73125         2.45180
   C        4.70232        -6.27128         1.61955
   N        3.70851        -5.75490         1.86384
   C        9.15926        -5.99276         0.08115
   C       10.35620        -6.70089        -0.20922
   C       10.49173        -8.11588        -0.02890
   N       11.70346        -8.54129        -0.37074
   S       12.59081        -7.29525        -0.86948
   N       11.47102        -6.14806        -0.67351
   C        9.12611        -4.59783        -0.11148
   S       10.57198        -3.77548        -0.66820
   C        9.84406        -2.18210        -0.64240
   C        8.50888        -2.29120        -0.22827
   C        8.12400        -3.62983         0.06373
   N        6.83016        -3.57054         0.44174
   N        6.36646        -2.32083         0.41590
   C        7.34023        -1.53451         0.02136
   C       10.62080        -1.07309        -0.99074
   C       10.17915         0.22264        -0.98370
   C       10.97279         1.34055        -1.29810
   S       10.29023         2.93958        -1.21487
   C       11.80339         3.67438        -1.66889
   C       12.77215         2.69364        -1.87837
   C       12.31494         1.40744        -1.67527
   C       11.91574         5.07457        -1.75900
   C       13.06837         5.74272        -2.06238
   C       13.12264         7.14681        -2.10197
   C       14.25638         7.87638        -2.35713
   C       14.37140         9.31902        -2.37677
   C       13.35607        10.23391        -2.24036
   C       13.54128        11.63114        -2.26973
   N       13.61803        12.77717        -2.28067
   C       11.99082         9.92997        -2.06699
   N       10.86101         9.77186        -1.92786
   C       15.77756         9.65150        -2.58864
   C       16.51154         8.44143        -2.74289
   C       15.59508         7.29424        -2.61711
   O       15.89636         6.11974        -2.70618
   C       17.85857         8.43556        -2.96015
   C       18.55126         9.66540        -3.02760
   C       17.82651        10.88074        -2.86615
   C       16.42930        10.85444        -2.64808
   C       18.52771        12.10201        -2.92684
   C       19.87955        12.12380        -3.13810
   C       20.59179        10.92628        -3.29950
   C       19.94153         9.72320        -3.24558
   H        9.51741       -19.71789         2.40395
   H       11.07173       -18.91274         1.84020
   H        7.36306       -18.16969         2.68543
   H        6.66930       -15.70445         2.41183
   H        6.55069       -13.40172         2.02094
   H        7.00203       -10.94668         1.45919
   H       10.77833       -10.49639         0.32322
   H        6.25548        -4.35195         0.72475
   H        7.17122        -0.48115        -0.06920
   H       11.64363        -1.28487        -1.26894
   H        9.15495         0.42188        -0.70647
   H       13.77926         2.93064        -2.16976
   H       12.92894         0.53297        -1.79120
   H       11.01805         5.64683        -1.55786
   H       13.97637         5.19758        -2.26665
   H       12.19990         7.67404        -1.89608
   H       18.39075         7.50291        -3.07631
   H       15.91152        11.79284        -2.52978
   H       17.97464        13.02156        -2.80263
   H       20.40765        13.06463        -3.18202
   H       21.65814        10.96154        -3.46624
   H       20.48480         8.79747        -3.36857
*
