# ORCA input file
# SCF done       -223.199852591516          0.000658110689
! CAM-B3LYP def2-SVP def2/J RIJCOSX Grid4 TightSCF
%maxcore 5000
%tddft
    Mode sTDDFT
    Ethresh 5.0
    maxcore 5000
end

%pal
  nprocs 6
  end
* xyz 0 1
   C        1.10180        -1.15740         1.41881
   S        2.45702        -0.68027         2.34224
   C        2.11873         0.99386         2.03758
   C        1.01750         1.14524         1.22943
   C        0.43900        -0.09742         0.87090
   C       -0.75812        -0.21307        -0.03152
   C       -0.36675        -0.96163        -1.30694
   F       -0.04221        -2.23979        -1.05569
   F       -1.37622        -1.00503        -2.19310
   F        0.67664        -0.42590        -1.95112
   C       -1.34563         1.16638        -0.35322
   C       -0.24913         2.19864        -0.60102
   C        0.50328         2.45869         0.71024
   O       -0.32265         3.03228         1.71529
   C       -0.78018         4.33095         1.43592
   C        2.92911         2.03054         2.62614
   C        4.27132         2.27506         2.44447
   N        5.16879         1.56157         1.62585
   O        4.74556         0.60275         1.00387
   O        6.31761         1.96244         1.57520
   C        4.64883         3.46680         3.17398
   C        3.54499         3.97426         3.76399
   C        2.42414         3.10031         3.48844
   C        1.17385         3.13512         4.06416
   C        0.33043         2.00312         4.31863
   C       -0.68402         2.38175         5.13818
   C       -0.57718         3.79075         5.38660
   N       -1.55030         4.51983         6.09198
   O       -1.53657         5.73835         6.01069
   O       -2.36824         3.88402         6.73432
   C        0.54565         4.29418         4.73765
   C        0.94298         5.64379         4.68313
   C        1.61945         6.22251         3.64487
   C        2.07597         7.55337         3.68348
   N        2.57759         8.23733         2.59805
   C        2.60034         7.77530         1.23180
   C        1.22397         7.88565         0.58042
   C        2.99168         9.53387         2.93466
   O        3.45315        10.32259         2.13288
   C        2.74602         9.63053         4.35879
   C        2.18231         8.40982         4.78513
   C        1.98410         8.48231         6.21853
   O        1.56452         7.68287         7.02481
   N        2.42389         9.77875         6.56070
   C        2.41126        10.22616         7.93337
   C        3.78494        10.09529         8.58662
   C        2.89246        10.46678         5.47347
   C        3.42586        11.77932         5.54056
   C        3.88349        12.42848         4.44292
   C        4.46189        13.74493         4.41922
   C        4.74706        14.48154         5.56779
   C        5.31842        15.74180         5.49097
   N        5.53331        16.41534         6.74512
   O        5.54771        15.73101         7.74690
   O        5.68226        17.62160         6.74804
   C        5.63504        16.33354         4.25111
   C        5.33949        15.58140         3.10463
   C        4.77628        14.33150         3.18013
   C        6.27037        17.62690         4.14991
   C        6.07603        18.48932         3.14054
   C        6.65306        19.80773         3.10131
   S        7.24899        20.40926         1.57952
   C        7.76988        21.86613         2.31565
   C        7.47835        21.91436         3.64486
   C        6.82930        20.73568         4.10241
   C        6.22435        20.67150         5.47980
   C        4.71514        20.89218         5.33780
   F        4.39160        21.94231         4.56206
   F        4.10200        19.83347         4.77904
   F        4.10866        21.09587         6.51342
   C        6.85555        21.70964         6.41463
   C        6.95309        23.09018         5.77298
   C        7.88897        23.03182         4.56624
   O        9.19936        22.81551         5.07372
   C       10.23436        22.99732         4.14581
   H        0.87094        -2.19945         1.31876
   H       -1.52356        -0.84169         0.43929
   H       -1.93595         1.49272         0.50530
   H       -2.00680         1.09294        -1.21770
   H       -0.68960         3.12535        -0.96926
   H        0.46302         1.84713        -1.34686
   H        1.35311         3.13972         0.52164
   H       -1.13792         4.74169         2.37894
   H       -1.60390         4.33382         0.71496
   H        0.03006         4.95874         1.04727
   H        5.65393         3.84031         3.21184
   H        3.50726         4.81560         4.42666
   H        0.53610         1.00567         3.98798
   H       -1.46414         1.76691         5.54580
   H        0.61522         6.27083         5.50527
   H        1.79360         5.65254         2.74304
   H        2.96854         6.74591         1.20091
   H        3.31034         8.41779         0.70407
   H        0.48167         7.32416         1.14447
   H        1.26243         7.50211        -0.43544
   H        0.91305         8.92682         0.54602
   H        1.69674         9.58290         8.45424
   H        2.05263        11.25778         7.97786
   H        4.10161         9.05532         8.57956
   H        3.73361        10.43480         9.61709
   H        4.53005        10.68767         8.06007
   H        3.45238        12.24987         6.51186
   H        3.82066        11.93109         3.48372
   H        4.53194        14.09084         6.55040
   H        5.59455        15.99271         2.14074
   H        4.57052        13.77689         2.27684
   H        6.91716        17.91806         4.96325
   H        5.45441        18.22294         2.29630
   H        8.24943        22.61470         1.71621
   H        6.31386        19.68201         5.93404
   H        7.86533        21.37777         6.65829
   H        6.27811        21.76087         7.33814
   H        7.36867        23.79311         6.49480
   H        5.97574        23.45291         5.45712
   H        7.86926        23.98714         4.01568
   H       11.16272        22.89890         4.70524
   H       10.18781        23.99406         3.68924
   H       10.21005        22.24177         3.35148
*
