# ORCA input file
# SCF done       -237.765254511374          0.000533459576
! CAM-B3LYP def2-SVP def2/J RIJCOSX Grid4 TightSCF
%maxcore 5000
%tddft
    Mode sTDDFT
    Ethresh 5.0
    maxcore 5000
end

%pal
  nprocs 6
  end
* xyz 0 1
   C        2.54287        -0.66742         7.31706
   S        1.53078         0.28716         8.29885
   C        2.01295         1.72416         7.44372
   C        2.99239         1.44113         6.49803
   C        3.28707         0.06783         6.42928
   C        4.24629        -0.52047         5.43934
   C        5.23565         0.52266         4.90843
   C        6.36816         0.73193         5.91081
   F        5.96128         0.94049         7.16744
   F        7.17186        -0.34140         5.94859
   F        7.14515         1.77870         5.58385
   C        4.52888         1.84986         4.57065
   C        3.54264         1.61366         3.53897
   N        2.73847         1.44054         2.74692
   C        3.82726         2.46318         5.79163
   C        1.40208         2.98876         7.68107
   C        1.14661         3.65326         8.86466
   N        1.31445         3.17475        10.17050
   O        1.34613         3.99147        11.07268
   O        1.41195         1.96590        10.33363
   C        0.74711         5.00790         8.57070
   C        0.72399         5.17939         7.22417
   C        1.04657         3.93043         6.60058
   C        0.77076         3.55513         5.29814
   C        0.38973         2.25226         4.86036
   C       -0.06804         2.34215         3.57821
   C        0.06272         3.68731         3.11880
   N       -0.33169         4.03090         1.81361
   O       -0.66844         3.12441         1.07559
   O       -0.35075         5.20906         1.48379
   C        0.62279         4.46835         4.14603
   C        1.24410         5.72360         4.19083
   C        1.20696         6.75727         3.28385
   C        1.96598         7.91438         3.49510
   N        1.92184         9.02613         2.69264
   C        1.07214         9.20990         1.53783
   C       -0.36245         9.54256         1.93693
   C        2.77782        10.04565         3.14519
   O        2.90992        11.12164         2.60652
   C        3.40376         9.47521         4.32612
   C        2.90632         8.18712         4.51947
   C        3.58562         7.63010         5.67667
   O        3.50169         6.54100         6.21216
   N        4.44466         8.64872         6.11860
   C        5.30634         8.41286         7.25685
   C        6.73958         8.10572         6.83283
   C        4.36288         9.76558         5.31886
   C        5.04435        10.98719         5.35115
   C        5.98685        11.43199         6.24662
   C        6.63961        12.66945         6.16955
   C        7.22807        13.34902         7.25328
   N        7.40817        12.89182         8.56750
   O        7.93531        13.65460         9.35829
   O        7.04246        11.75951         8.85609
   C        7.58957        14.65899         6.84019
   C        7.23469        14.82313         5.52802
   C        6.69297        13.60048         5.03332
   C        6.48084        13.29650         3.69518
   C        6.69907        12.03967         3.06846
   C        6.65071        12.21488         1.71813
   C        6.34236        13.58294         1.42003
   N        6.21231        13.98043         0.08215
   O        6.17148        13.09742        -0.75729
   O        6.17126        15.17184        -0.20197
   C        6.19664        14.28378         2.62420
   C        5.68482        15.55075         2.96000
   C        5.45866        16.61316         2.12888
   C        4.95277        17.85109         2.56196
   S        4.53187        18.17287         4.23177
   C        4.06692        19.76564         3.84322
   C        4.21775        20.06210         2.51319
   C        4.72542        18.97775         1.77615
   C        4.95492        19.02577         0.29952
   C        4.95112        20.46438        -0.22996
   C        6.30186        21.12819         0.03125
   F        6.75426        20.97982         1.28422
   F        7.24721        20.62183        -0.77023
   F        6.26791        22.45110        -0.20165
   C        3.79622        21.28361         0.37828
   C        2.54258        20.63891         0.04557
   N        1.54882        20.12966        -0.19193
   C        3.91519        21.39586         1.90634
   H        2.57060        -1.73081         7.45217
   H        3.67471        -0.91542         4.59341
   H        4.78931        -1.35569         5.88753
   H        5.72200         0.13708         4.00428
   H        5.26118         2.56442         4.17545
   H        3.23990         3.32740         5.48308
   H        4.58305         2.83337         6.49217
   H        0.50233         5.72506         9.33098
   H        0.39121         6.05745         6.70743
   H        0.35898         1.37848         5.48059
   H       -0.47074         1.55156         2.97432
   H        1.85598         5.87662         5.07025
   H        0.58081         6.69291         2.40834
   H        1.09852         8.30842         0.92120
   H        1.50244        10.04210         0.97446
   H       -0.80503         8.73012         2.50801
   H       -0.95887         9.70186         1.04360
   H       -0.38550        10.44903         2.53737
   H        4.88693         7.54380         7.77205
   H        5.26659         9.26681         7.93568
   H        6.76806         7.19128         6.24492
   H        7.35638         7.97204         7.71636
   H        7.15796         8.91376         6.23752
   H        4.73926        11.65206         4.55263
   H        6.21172        10.85767         7.13267
   H        8.06819        15.37723         7.47863
   H        7.45986        15.68263         4.92685
   H        6.97158        11.13705         3.57932
   H        6.82344        11.47522         0.95917
   H        5.44374        15.68596         4.00760
   H        5.69291        16.52339         1.07836
   H        3.70417        20.41615         4.61480
   H        4.15812        18.46526        -0.19970
   H        5.89852        18.53919         0.04076
   H        4.84408        20.44881        -1.32073
   H        3.78290        22.28779        -0.06236
   H        2.98522        21.79387         2.31949
   H        4.71198        22.10112         2.15996
*
