# ORCA input file
# SCF done       -242.757911954433          0.000744758924
! CAM-B3LYP def2-SVP def2/J RIJCOSX Grid4 TightSCF
%maxcore 5000
%tddft
    Mode sTDDFT
    Ethresh 5.0
    maxcore 5000
end

%pal
  nprocs 6
  end
* xyz 0 1
   C        3.23464         4.29278        -2.29049
   C        2.82222         4.29776        -3.59564
   C        3.68343         4.09211        -4.69515
   N        4.32967         3.94235        -5.63173
   C        1.49644         4.49662        -4.03767
   N        0.44661         4.64687        -4.47730
   C        4.58973         4.02687        -1.82665
   C        4.59345         4.02536        -0.40268
   C        5.72874         3.79261         0.31891
   C        6.93800         3.54013        -0.36516
   C        6.94489         3.54044        -1.79019
   C        5.75367         3.78943        -2.50946
   C        8.15763         3.28607        -2.46258
   C        9.30831         3.04222        -1.76324
   C        9.30025         3.04291        -0.36034
   C        8.14018         3.28623         0.32380
   C        3.23917         4.29279         0.09050
   O        2.89346         4.42849         1.24865
   C        2.39056         4.46166        -1.11623
   C        1.08343         4.84316        -1.11851
   C        0.15250         4.85512        -0.04224
   S       -1.07903         6.08496        -0.08715
   C       -1.84750         5.45938         1.33358
   C       -1.18268         4.32372         1.79045
   C       -0.06477         3.97992         1.01607
   C        0.71256         2.72983         1.27985
   N        1.08397         2.06511         0.00840
   O        0.21694         1.92755        -0.81816
   O        2.22351         1.68156        -0.10337
   C       -0.11578         1.73847         2.09920
   C       -0.61433         2.44371         3.35248
   C       -1.63413         3.52271         2.97597
   N       -1.79045         4.40217         4.17210
   O       -0.87816         5.13641         4.44396
   O       -2.81751         4.29033         4.79754
   C       -2.99988         6.06509         1.89870
   C       -3.58355         7.18539         1.40186
   C       -4.72948         7.87204         1.87576
   N       -5.44317         7.70613         3.04202
   C       -5.11783         6.91131         4.20393
   C       -3.87645         7.42748         4.92518
   C       -6.54831         8.58781         3.10489
   O       -7.31872         8.63293         4.03940
   C       -6.48921         9.32586         1.86494
   C       -5.36431         8.87848         1.14547
   C       -5.30627         9.62660        -0.09121
   O       -4.52815         9.60445        -1.01946
   N       -6.41968        10.49824        -0.02722
   C       -6.69797        11.37788        -1.13671
   C       -7.80260        10.82667        -2.03586
   C       -7.13841        10.32122         1.13259
   C       -8.30272        10.96868         1.61016
   C       -9.05659        11.94924         1.04888
   C      -10.19999        12.49227         1.68792
   S      -10.74534        11.92257         3.23239
   C      -12.07809        13.03785         3.25573
   C      -12.10346        13.79414         2.08604
   C      -11.04309        13.49694         1.21853
   C      -10.87257        14.19271        -0.10102
   F       -9.55089        14.48185        -0.36336
   C      -11.68111        15.49481        -0.14453
   F      -11.17838        16.40412         0.75113
   C      -13.12640        15.17887         0.24840
   F      -13.56062        14.13999        -0.53817
   C      -13.17487        14.78609         1.73284
   F      -14.42357        14.26986         1.99302
   C      -12.89358        13.04310         4.41711
   C      -13.75852        14.01355         4.81128
   C      -14.49747        13.89374         6.01077
   C      -15.32035        14.86349         6.50897
   C      -16.12847        14.78367         7.71260
   C      -16.21512        13.72496         8.57972
   C      -17.02675        13.71093         9.73385
   N      -17.66165        13.62982        10.68701
   C      -15.52069        12.50261         8.46466
   N      -14.99541        11.48133         8.45262
   C      -16.85145        16.04360         7.84723
   C      -16.50015        16.89088         6.75778
   C      -15.53125        16.20006         5.89090
   O      -15.00856        16.64915         4.89083
   C      -17.02337        18.14433         6.62011
   C      -17.93979        18.61909         7.58476
   C      -18.29610        17.77832         8.67836
   C      -17.73866        16.48439         8.79365
   C      -19.20901        18.26190         9.63767
   C      -19.74509        19.51565         9.52407
   C      -19.39398        20.34260         8.44654
   C      -18.51090        19.90385         7.49747
   H        5.70304         3.79610         1.39844
   H        5.79410         3.78590        -3.58701
   H        8.15909         3.28553        -3.54266
   H       10.23174         2.84707        -2.28756
   H       10.21754         2.84941         0.17537
   H        8.12769         3.28773         1.40395
   H        0.67487         5.22767        -2.04550
   H        1.64944         2.96997         1.80109
   H        0.50136         0.88160         2.37284
   H       -0.95942         1.38564         1.50057
   H        0.23179         2.91715         3.85716
   H       -1.07287         1.72735         4.03543
   H       -2.61881         3.07640         2.79213
   H       -3.42718         5.57355         2.75630
   H       -3.16660         7.62946         0.50519
   H       -5.01060         5.85826         3.93290
   H       -5.98522         6.99928         4.86518
   H       -3.01521         7.46192         4.26157
   H       -3.64559         6.77103         5.75886
   H       -4.05635         8.42969         5.30603
   H       -5.76645        11.43802        -1.70784
   H       -6.94149        12.37612        -0.76534
   H       -7.48281         9.88578        -2.47677
   H       -8.01104        11.53148        -2.83597
   H       -8.71705        10.64912        -1.47400
   H       -8.60401        10.59583         2.58337
   H       -8.81339        12.36612         0.08657
   H      -11.20779        13.54727        -0.92734
   H      -11.61135        15.95567        -1.13666
   H      -13.80226        16.02008         0.05814
   H      -13.08007        15.70182         2.33523
   H      -12.74829        12.19112         5.07234
   H      -13.90073        14.91389         4.23932
   H      -14.39540        12.96162         6.55144
   H      -16.73999        18.76727         5.78464
   H      -18.02979        15.87414         9.63352
   H      -19.47601        17.62121        10.46529
   H      -20.44289        19.87738        10.26433
   H      -19.82667        21.32911         8.37247
   H      -18.23689        20.53649         6.66583
*
