# ORCA input file
# SCF done       -214.254760307776          0.000577193402
! CAM-B3LYP def2-SVP def2/J RIJCOSX Grid4 TightSCF
%maxcore 5000
%tddft
    Mode sTDDFT
    Ethresh 5.0
    maxcore 5000
end

%pal
  nprocs 6
  end
* xyz 0 1
   C       -0.89232         1.63750        -2.47008
   C       -0.66979         2.87341        -3.01957
   C       -1.22087         3.29548        -4.24546
   N       -1.66451         3.67924        -5.23170
   C        0.22129         3.79650        -2.43726
   N        0.99101         4.51706        -1.98216
   C       -1.53275         0.50534        -3.12304
   C       -1.10328        -0.69075        -2.47404
   C       -1.51326        -1.92118        -2.90002
   C       -2.39291        -2.01136        -4.00250
   C       -2.83634        -0.81857        -4.64496
   C       -2.38900         0.44252        -4.18910
   C       -3.71929        -0.92455        -5.73877
   C       -4.14267        -2.14837        -6.18070
   C       -3.70432        -3.32186        -5.54908
   C       -2.84784        -3.25482        -4.48374
   C       -0.21701        -0.35027        -1.34538
   O        0.38428        -1.09591        -0.61125
   C       -0.27464         1.14034        -1.25533
   C        0.09978         1.78968        -0.12730
   C       -0.30780         3.10376         0.25764
   S       -1.91780         3.65746        -0.09611
   C       -1.64527         5.17179         0.70149
   C       -0.34291         5.25491         1.16196
   C        0.39800         4.07671         0.93933
   C        1.84378         3.92318         1.29838
   N        2.03720         2.72763         2.16965
   O        2.98371         2.02260         1.93375
   O        1.25265         2.58141         3.07402
   C        2.36846         5.12622         2.08962
   C        1.81980         6.41558         1.49634
   C        0.30602         6.47471         1.74078
   N       -0.16111         7.72880         1.08996
   O       -0.23864         8.69973         1.80596
   O       -0.36770         7.71207        -0.09298
   C       -2.73988         6.09145         0.77793
   C       -2.89848         7.01735         1.74098
   C       -3.95684         7.99846         1.81894
   C       -4.06493         8.76842         3.00701
   O       -3.24552         8.34847         4.00294
   C       -2.71125         9.20997         4.98868
   C       -1.86169        10.32418         4.38830
   C       -5.05812         9.76186         3.09962
   C       -5.91714         9.94779         2.00882
   C       -5.80018         9.21103         0.85010
   C       -4.82207         8.24143         0.75543
   C       -5.29603        10.60890         4.26057
   C       -6.53419        10.83296         4.74811
   C       -6.83623        11.68210         5.85058
   C       -8.09607        11.96941         6.31958
   C       -8.00107        12.85286         7.43194
   C       -6.55409        13.08417         7.64119
   C       -5.87676        12.39206         6.69170
   C       -5.95757        13.86373         8.63801
   N       -5.42704        14.48389         9.44661
   C       -9.02784        13.40191         8.16044
   C       -8.92669        14.27499         9.28933
   C      -10.19013        14.56026         9.75509
   C      -11.15011        13.91125         8.87236
   C      -10.46719        13.21627         7.92431
   C      -11.05951        12.49093         6.88441
   N      -11.57052        11.90946         6.03547
   C      -10.47696        15.38838        10.87642
   C      -11.55984        15.29388        11.69562
   C      -11.93438        16.21550        12.75537
   C      -11.40053        17.45741        12.97838
   C      -11.81445        18.32067        14.01501
   N      -12.10293        19.06455        14.84024
   C      -10.39108        18.06112        12.19863
   N       -9.59160        18.62746        11.60009
   C      -13.03950        15.61880        13.49502
   C      -13.36664        14.36805        12.89711
   C      -12.46112        14.10902        11.76696
   O      -12.40978        13.10328        11.09258
   C      -14.37711        13.58184        13.37149
   C      -15.12608        14.02142        14.48540
   C      -14.80253        15.26903        15.09352
   C      -13.74732        16.05887        14.58280
   C      -15.55454        15.69649        16.20684
   C      -16.57809        14.93110        16.69558
   C      -16.89625        13.70352        16.09533
   C      -16.18577        13.25826        15.01371
   H       -1.17094        -2.81628        -2.40240
   H       -2.74348         1.33280        -4.68540
   H       -4.05146        -0.01848        -6.22379
   H       -4.81769        -2.21904        -7.02033
   H       -4.04878        -4.27912        -5.91054
   H       -2.50710        -4.15495        -3.99353
   H        0.68207         1.20995         0.58129
   H        2.44076         3.76280         0.39385
   H        3.45856         5.13218         2.06537
   H        2.04496         5.04067         3.13080
   H        2.00766         6.43832         0.42028
   H        2.30205         7.27745         1.96031
   H        0.10606         6.58231         2.81355
   H       -3.49180         5.96042         0.01312
   H       -2.20331         7.04886         2.56631
   H       -2.08326         8.54702         5.59177
   H       -3.50659         9.59914         5.63625
   H       -1.10401         9.89846         3.73408
   H       -1.37360        10.88262         5.18235
   H       -2.46424        11.00696         3.79320
   H       -6.66785        10.72025         2.07930
   H       -6.46435         9.39828         0.02091
   H       -4.71320         7.67950        -0.15769
   H       -4.45903        11.12189         4.70765
   H       -7.38169        10.32682         4.30422
   H       -9.01599        11.59837         5.91283
   H       -4.80825        12.36349         6.58319
   H       -8.00559        14.60635         9.72862
   H      -12.21595        14.01048         8.93365
   H       -9.72531        16.13852        11.09193
   H      -14.60419        12.63756        12.89911
   H      -13.52398        16.99492        15.06945
   H      -15.30662        16.64267        16.66499
   H      -17.14892        15.26770        17.54792
   H      -17.70695        13.11248        16.49430
   H      -16.42576        12.31395        14.54736
*
