# ORCA input file
# SCF done       -216.805356587296          0.000984530620
! CAM-B3LYP def2-SVP def2/J RIJCOSX Grid4 TightSCF
%maxcore 5000
%tddft
    Mode sTDDFT
    Ethresh 5.0
    maxcore 5000
end

%pal
  nprocs 6
  end
* xyz 0 1
   C       -4.02702         1.97147        -5.03141
   C       -4.98929         2.14662        -5.98599
   F       -5.19151         3.35486        -6.52378
   C       -5.77974         1.06080        -6.41648
   F       -6.71448         1.26270        -7.35270
   C       -5.59657        -0.18545        -5.88591
   C       -4.61265        -0.39802        -4.90059
   C       -3.81227         0.69857        -4.46515
   C       -2.81651         0.50889        -3.48054
   C       -2.62309        -0.74012        -2.94972
   C       -3.43021        -1.82756        -3.38715
   C       -4.40277        -1.67421        -4.33376
   C       -3.04880        -3.05075        -2.65881
   O       -3.58614        -4.13311        -2.72713
   C       -1.93304        -2.64775        -1.75668
   C       -1.67791        -1.22989        -1.95172
   C       -0.68531        -0.49252        -1.36333
   C        0.28147        -0.99588        -0.46544
   N        1.11072        -1.33558         0.25168
   C       -0.47807         0.88397        -1.60028
   N       -0.26215         2.00103        -1.74870
   C       -1.37553        -3.45033        -0.80814
   C       -1.51195        -4.86000        -0.68669
   C       -1.39504        -5.55074         0.49860
   C       -1.59816        -6.94475         0.25234
   C       -1.79199        -7.07293        -1.20141
   C       -1.73137        -5.83363        -1.75304
   C       -1.94099        -8.26576        -1.92108
   N       -2.04184        -9.23277        -2.53129
   C       -1.59677        -7.96334         1.17569
   C       -1.83639        -9.34760         0.94457
   C       -1.69062       -10.03851         2.13178
   C       -1.35355        -9.07208         3.17142
   C       -1.31242        -7.83348         2.62104
   C       -1.04330        -6.65395         3.32612
   N       -0.82738        -5.70732         3.93916
   C       -1.83620       -11.43199         2.33960
   C       -2.31033       -12.36943         1.44073
   C       -2.28370       -13.65395         2.04857
   C       -1.74260       -13.45342         3.41004
   C       -1.49799       -12.12989         3.57498
   C       -1.54805       -14.43135         4.39399
   N       -1.38262       -15.20007         5.23037
   C       -2.69277       -14.85364         1.50965
   C       -2.58710       -16.14608         2.09133
   C       -3.15286       -17.07559         1.23912
   C       -3.64609       -16.36306         0.06611
   C       -3.36348       -15.04375         0.20588
   C       -3.70114       -14.04666        -0.71779
   N       -4.00120       -13.25389        -1.49206
   C       -3.25579       -18.47277         1.45087
   C       -2.66319       -19.20882         2.45801
   C       -3.03155       -20.57602         2.31646
   C       -3.92957       -20.63955         1.14246
   C       -4.04296       -19.38829         0.63166
   C       -4.58781       -21.77563         0.65816
   N       -5.14298       -22.69769         0.25573
   C       -2.67085       -21.63578         3.11159
   C       -3.11690       -22.98565         2.98117
   C       -2.68970       -23.71058         4.06833
   C       -1.87173       -22.83099         4.89677
   C       -1.85584       -21.59392         4.33924
   C       -1.16370       -20.48289         4.83796
   N       -0.56442       -19.59455         5.24960
   C       -2.93652       -25.07574         4.36430
   C       -3.92214       -25.88705         3.89588
   C       -3.75349       -27.36717         4.04308
   O       -2.94175       -27.92754         4.73979
   C       -4.73992       -27.96380         3.12521
   C       -4.91847       -29.27600         2.79088
   C       -5.92045       -29.61452         1.85462
   C       -6.70676       -28.58075         1.26606
   C       -7.69711       -28.92475         0.32390
   C       -7.90316       -30.23348        -0.01158
   C       -7.12796       -31.25543         0.57441
   C       -6.15597       -30.95381         1.48672
   F       -7.35285       -32.52872         0.22723
   F       -8.84699       -30.55977        -0.90256
   C       -6.50089       -27.23149         1.63342
   C       -5.54250       -26.92975         2.56381
   C       -5.14953       -25.65376         3.15837
   C       -5.94832       -24.54248         3.19759
   C       -5.67048       -23.37751         3.93865
   N       -5.50872       -22.40761         4.53146
   C       -7.20796       -24.45939         2.56314
   N       -8.24357       -24.34293         2.08434
   H       -3.43059         2.81262        -4.71404
   H       -6.20963        -1.00551        -6.22567
   H       -2.23234         1.35965        -3.16940
   H       -5.00110        -2.51657        -4.64639
   H       -0.78230        -2.98920        -0.02725
   H       -1.23110        -5.11465         1.46500
   H       -1.78635        -5.60758        -2.79951
   H       -2.07816        -9.77376        -0.00885
   H       -1.18553        -9.30721         4.20569
   H       -2.64650       -12.17093         0.44216
   H       -1.10623       -11.66813         4.46177
   H       -2.14164       -16.35511         3.04373
   H       -4.13907       -16.81624        -0.77353
   H       -2.01537       -18.82910         3.22323
   H       -4.63508       -19.10524        -0.21863
   H       -3.66998       -23.36406         2.14521
   H       -1.38979       -23.12979         5.80916
   H       -2.21420       -25.56494         5.01239
   H       -4.30407       -30.04450         3.23479
   H       -8.30138       -28.15523        -0.13059
   H       -5.57102       -31.74720         1.92512
   H       -7.09849       -26.46765         1.16234
*
