# ORCA input file
# SCF done       -237.891948482684          0.000847763234
! CAM-B3LYP def2-SVP def2/J RIJCOSX Grid4 TightSCF
%maxcore 5000
%tddft
    Mode sTDDFT
    Ethresh 5.0
    maxcore 5000
end

%pal
  nprocs 6
  end
* xyz 0 1
   C       -9.68586         2.04942         2.72037
   C      -11.04740         2.13412         2.80338
   F      -11.65021         3.32852         2.77733
   C      -11.83368         0.96907         2.91674
   F      -13.16508         1.08288         2.99555
   C      -11.24682        -0.26497         2.94525
   C       -9.84604        -0.38526         2.85993
   C       -9.04972         0.79181         2.74662
   C       -7.64240         0.69550         2.65927
   C       -7.04932        -0.53990         2.68400
   C       -7.85290        -1.71001         2.79067
   C       -9.21437        -1.64818         2.87748
   C       -6.99189        -2.90624         2.75897
   O       -7.35165        -4.06223         2.76322
   C       -5.60202        -2.39149         2.61280
   C       -5.64814        -0.93996         2.61194
   C       -4.56975        -0.09679         2.62170
   C       -3.22241        -0.51837         2.64164
   N       -2.10916        -0.79421         2.67905
   C       -4.66895         1.31093         2.64871
   N       -4.69240         2.45794         2.66683
   C       -4.53282        -3.18325         2.32627
   C       -4.50198        -4.60220         2.43133
   C       -3.81271        -5.44503         1.59063
   C       -4.04209        -6.79698         1.99383
   C       -4.89082        -6.72632         3.19282
   C       -5.16920        -5.41954         3.44066
   C       -5.39871        -7.80383         3.93145
   N       -5.86237        -8.65819         4.54170
   C       -3.58426        -7.93946         1.37672
   C       -3.71522        -9.27877         1.83244
   C       -3.19899       -10.13825         0.87836
   C       -2.70733        -9.32809        -0.22757
   C       -2.90028        -8.01743         0.07364
   C       -2.53756        -6.94880        -0.75490
   N       -2.22890        -6.09767        -1.46136
   C       -3.16150       -11.54665         1.03415
   N       -3.04791       -12.49875         0.05681
   C       -3.06960       -12.32261        -1.37795
   C       -4.38939       -11.73779        -1.86835
   C       -3.06112       -13.80501         0.59568
   O       -2.99793       -14.80445        -0.08456
   C       -3.15326       -13.60454         2.02803
   C       -3.22726       -12.22197         2.26415
   C       -3.23622       -12.00865         3.70310
   O       -3.26173       -11.00643         4.37817
   N       -3.19415       -13.31046         4.23937
   C       -3.16955       -13.52657         5.66697
   C       -1.75711       -13.80481         6.17431
   C       -3.13699       -14.27400         3.26578
   C       -3.06818       -15.65423         3.52851
   C       -3.05589       -16.58810         2.52972
   C       -2.96063       -17.98403         2.72568
   C       -3.01115       -18.84286         1.58910
   C       -2.83092       -20.26129         1.69053
   N       -2.90484       -21.02773         0.58866
   C       -3.11713       -20.45886        -0.57038
   C       -3.27151       -19.03635        -0.67476
   N       -3.23070       -18.28163         0.39327
   C       -3.50281       -18.43593        -1.93905
   N       -3.68990       -17.99368        -2.97832
   C       -3.22052       -21.26723        -1.73223
   N       -3.31068       -21.88294        -2.69315
   C       -2.52643       -20.89218         2.92320
   C       -2.55342       -20.05806         4.06114
   C       -2.77869       -18.63274         3.97021
   N       -2.76273       -18.06121         5.17533
   S       -2.51000       -19.18078         6.29575
   N       -2.40037       -20.45359         5.32670
   C       -2.27188       -22.29018         2.94475
   C       -1.58219       -23.04230         3.84453
   C       -1.80493       -24.51927         3.86800
   O       -2.38773       -25.17524         3.03916
   C       -1.21134       -24.97858         5.13976
   C       -1.23683       -26.22478         5.69611
   C       -0.60882       -26.43218         6.94484
   C        0.02828       -25.33661         7.59740
   C        0.64806       -25.54913         8.84527
   C        0.63920       -26.79072         9.41640
   C        0.01050       -27.87381         8.76919
   C       -0.60093       -27.69955         7.55917
   F        0.01669       -29.07885         9.35300
   F        1.22972       -26.99033        10.60128
   C        0.04231       -24.05815         6.99413
   C       -0.56251       -23.88290         5.77806
   C       -0.66885       -22.71100         4.91363
   C        0.12588       -21.59693         4.99261
   C        0.17623       -20.59373         4.00599
   N        0.26139       -19.75322         3.22803
   C        1.01977       -21.33852         6.05119
   N        1.73366       -21.05530         6.90435
   H       -9.09936         2.95087         2.63501
   H      -11.86214        -1.14680         3.03154
   H       -7.06836         1.60333         2.56745
   H       -9.80002        -2.55144         2.95695
   H       -3.63287        -2.72743         1.93051
   H       -3.22440        -5.14681         0.74453
   H       -5.74121        -5.03938         4.26423
   H       -4.14004        -9.56627         2.77356
   H       -2.22589        -9.69188        -1.11449
   H       -2.93416       -13.32567        -1.79406
   H       -2.22249       -11.70791        -1.69211
   H       -5.21496       -12.38192        -1.57537
   H       -4.37413       -11.66735        -2.95219
   H       -4.56123       -10.74482        -1.45819
   H       -3.84359       -14.34871         5.92075
   H       -3.54703       -12.60479         6.11816
   H       -1.34600       -14.70265         5.71858
   H       -1.77568       -13.93694         7.25228
   H       -1.10634       -12.96612         5.93975
   H       -3.02530       -15.98473         4.55559
   H       -3.11731       -16.27460         1.49529
   H       -2.72921       -22.84710         2.13150
   H       -1.72753       -27.04206         5.18990
   H        1.13738       -24.73236         9.35255
   H       -1.07741       -28.53848         7.07663
   H        0.52578       -23.24609         7.51331
*
