# ORCA input file
# SCF done       -240.783540333814          0.000683357148
! CAM-B3LYP def2-SVP def2/J RIJCOSX Grid4 TightSCF
%maxcore 5000
%tddft
    Mode sTDDFT
    Ethresh 5.0
    maxcore 5000
end

%pal
  nprocs 6
  end
* xyz 0 1
   C      -12.80427         2.52711        -2.48355
   C      -12.88145         3.37695        -3.55083
   F      -13.15109         4.67402        -3.36032
   C      -12.67943         2.90184        -4.86326
   F      -12.76045         3.75850        -5.88866
   C      -12.40574         1.58217        -5.08974
   C      -12.32243         0.68037        -4.01082
   C      -12.52284         1.16004        -2.68282
   C      -12.43927         0.27537        -1.58454
   C      -12.16595        -1.04980        -1.80699
   C      -11.97146        -1.52032        -3.13756
   C      -12.04597        -0.68864        -4.21784
   C      -11.69766        -2.96558        -3.11105
   O      -11.65797        -3.73363        -4.04226
   C      -11.56745        -3.31007        -1.66124
   C      -12.01371        -2.16596        -0.88140
   C      -12.26842        -2.14582         0.46212
   C      -12.18417        -3.27722         1.30193
   N      -12.14937        -4.17272         2.01933
   C      -12.69405        -1.00031         1.16946
   N      -13.03892        -0.10188         1.79383
   C      -11.04816        -4.47292        -1.21237
   C      -10.44315        -5.48532        -2.03268
   C       -9.45598        -5.35475        -2.97845
   N       -8.84882        -4.16764        -3.45961
   O       -9.05188        -3.12624        -2.85726
   O       -8.14654        -4.26374        -4.44082
   C       -9.02874        -6.66611        -3.41867
   C       -9.70034        -7.60132        -2.70973
   C      -10.62743        -6.93923        -1.82187
   C      -11.60816        -7.46631        -1.01898
   C      -12.79765        -6.75904        -0.63575
   C      -13.64545        -7.62515        -0.03352
   C      -12.99925        -8.90852         0.09665
   N      -13.72569        -9.99046         0.64386
   O      -13.22987       -11.10416         0.65831
   O      -14.84560        -9.74562         1.05125
   C      -11.72932        -8.84452        -0.46602
   C      -10.62678        -9.73518        -0.43711
   C      -10.48165       -10.80005         0.39356
   C       -9.38260       -11.70769         0.43845
   C       -8.57193       -12.29036        -0.51888
   C       -8.77477       -12.23104        -1.99138
   O       -8.62204       -13.19629        -2.70251
   O       -9.11040       -11.03932        -2.44999
   C       -7.63547       -13.22175         0.04850
   C       -7.76222       -13.31292         1.41657
   S       -8.99762       -12.33198         2.03170
   C       -6.67301       -13.95919        -0.72866
   C       -6.34899       -15.29505        -0.70218
   N       -6.80958       -16.31092         0.16412
   O       -7.32525       -15.98904         1.21990
   O       -6.65485       -17.45797        -0.20490
   C       -5.51742       -15.60845        -1.84840
   C       -5.35655       -14.48939        -2.59503
   C       -6.01273       -13.40207        -1.93031
   C       -5.99076       -12.06507        -2.25139
   C       -6.07794       -10.97412        -1.32648
   C       -6.01069        -9.81160        -2.02339
   C       -5.95751       -10.10702        -3.42952
   N       -5.98252        -9.05052        -4.35767
   O       -5.68515        -9.26010        -5.52330
   O       -6.30723        -7.95529        -3.93467
   C       -5.93895       -11.49191        -3.61297
   C       -6.21117       -12.32063        -4.72757
   C       -6.48501       -11.93212        -6.00489
   C       -6.89708       -12.83987        -7.00654
   C       -7.54774       -12.47988        -8.14862
   C       -7.57950       -13.36925        -9.34551
   O       -7.30040       -14.54231        -9.38077
   C       -7.95583       -12.47973       -10.46307
   C       -8.00222       -12.75743       -11.79878
   C       -8.36073       -11.73118       -12.70187
   C       -8.65904       -10.42954       -12.20143
   C       -9.00368        -9.40798       -13.10908
   C       -9.05340        -9.66684       -14.45042
   C       -8.76125       -10.95534       -14.94400
   C       -8.42238       -11.96688       -14.08884
   F       -8.81743       -11.17955       -16.26120
   F       -9.38060        -8.69752       -15.31105
   C       -8.61055       -10.17209       -10.81241
   C       -8.27003       -11.18441        -9.95493
   C       -8.15981       -11.21914        -8.50131
   C       -8.72824       -10.32502        -7.62835
   C       -8.84761       -10.52978        -6.24398
   N       -9.04105       -10.65119        -5.11679
   C       -9.38291        -9.14238        -8.04128
   N       -9.92327        -8.17487        -8.33495
   H      -12.96113         2.90765        -1.48630
   H      -12.25309         1.23407        -6.09926
   H      -12.58673         0.66968        -0.59186
   H      -11.88952        -1.07101        -5.21485
   H      -11.03525        -4.68396        -0.14969
   H       -8.27488        -6.81299        -4.16839
   H       -9.64598        -8.65927        -2.86926
   H      -13.02109        -5.74867        -0.91427
   H      -14.64616        -7.43622         0.30635
   H       -9.80115        -9.48251        -1.08032
   H      -11.21907       -10.97746         1.16362
   H       -9.20080       -11.03510        -3.44157
   H       -7.16141       -13.90069         2.08126
   H       -5.12050       -16.58913        -2.03221
   H       -4.72944       -14.39042        -3.45982
   H       -6.07159       -11.07987        -0.25918
   H       -6.00327        -8.81127        -1.63375
   H       -6.34327       -13.36830        -4.49560
   H       -6.38409       -10.89421        -6.29059
   H       -6.64063       -13.88874        -6.90401
   H       -7.76679       -13.74589       -12.16270
   H       -9.23262        -8.41757       -12.74787
   H       -8.20102       -12.94636       -14.48290
   H       -8.82926        -9.17651       -10.46050
*
