# ORCA input file
# SCF done       -219.109179396415          0.000437697643
! CAM-B3LYP def2-SVP def2/J RIJCOSX Grid4 TightSCF
%maxcore 5000
%tddft
    Mode sTDDFT
    Ethresh 5.0
    maxcore 5000
end

%pal
  nprocs 6
  end
* xyz 0 1
   C       -2.17249        -1.50453       -11.14386
   C       -1.40562        -1.71853       -12.25396
   F       -1.43584        -0.84899       -13.27257
   C       -0.57307        -2.85291       -12.34410
   F        0.16996        -3.03482       -13.44454
   C       -0.52179        -3.75963       -11.32341
   C       -1.30137        -3.56797       -10.16556
   C       -2.14015        -2.41904       -10.07071
   C       -2.92573        -2.20273        -8.91711
   C       -2.87469        -3.10605        -7.88622
   C       -2.04430        -4.25653        -7.99537
   C       -1.27342        -4.49153        -9.09856
   C       -2.17373        -5.08088        -6.77902
   O       -1.59380        -6.11564        -6.53844
   C       -3.15206        -4.36306        -5.91522
   C       -3.57947        -3.14920        -6.61049
   C       -4.50738        -2.24232        -6.18699
   C       -4.83667        -1.06043        -6.88620
   N       -5.10399        -0.05505        -7.36991
   C       -5.27928        -2.32857        -5.00792
   N       -5.95370        -2.32625        -4.07863
   C       -3.62248        -4.80519        -4.73163
   C       -3.33231        -6.06994        -4.08572
   C       -2.10932        -6.57989        -3.76775
   S       -2.21682        -8.05473        -2.89907
   C       -3.92364        -8.02221        -2.96115
   C       -4.39383        -6.91941        -3.61543
   C       -5.81741        -6.67864        -3.89546
   O       -6.74727        -7.15170        -3.29554
   O       -5.91620        -5.85487        -4.97027
   C       -7.04068        -5.23536        -5.39811
   C       -8.27796        -5.28191        -4.88345
   C       -9.30561        -4.47433        -5.46218
   N      -10.63141        -4.58707        -5.13317
   C      -11.21431        -5.54854        -4.22992
   C      -11.27457        -6.94462        -4.84464
   C      -11.43435        -3.67988        -5.86164
   O      -12.64133        -3.61530        -5.75232
   C      -10.48804        -2.95372        -6.67214
   C       -9.18812        -3.46258        -6.40728
   C       -8.26439        -2.71486        -7.22494
   O       -7.05440        -2.81257        -7.37640
   N       -9.05765        -1.78903        -7.91729
   C       -8.46850        -0.89762        -8.88967
   C       -8.17802         0.48605        -8.31273
   C      -10.39154        -1.92840        -7.60195
   C      -11.52927        -1.25321        -8.13118
   C      -11.58664        -0.12505        -8.86737
   C      -12.80339         0.41127        -9.41796
   C      -14.00986        -0.23585        -9.49288
   S      -15.21584         0.67419       -10.30315
   C      -14.11620         1.94781       -10.58899
   C      -12.87741         1.69461       -10.06551
   C      -11.76404         2.64058       -10.17985
   O      -10.78625         2.71531        -9.48743
   O      -11.96885         3.44677       -11.26630
   C      -11.07931         4.41942       -11.58835
   C      -11.01412         4.88195       -12.84825
   C      -11.79022         4.38489       -13.94486
   C      -12.29763         3.14228       -14.15302
   C      -13.42994         2.97308       -15.11386
   O      -13.78886         3.76009       -15.95556
   C      -14.04739         1.67835       -14.75544
   C      -15.20673         1.12140       -15.21317
   C      -15.62899        -0.11895       -14.68307
   C      -14.83763        -0.76130       -13.68689
   C      -15.27195        -1.99006       -13.15101
   C      -16.43465        -2.55902       -13.58886
   C      -17.21397        -1.92661       -14.57900
   C      -16.82106        -0.73220       -15.11509
   F      -18.34750        -2.50788       -14.99018
   F      -16.84560        -3.72642       -13.08008
   C      -13.63374        -0.16884       -13.24439
   C      -13.24579         1.03400       -13.77112
   C      -12.07916         1.86651       -13.50181
   C      -10.93320         1.44113       -12.88622
   C       -9.74683         2.20064       -12.81720
   N       -8.75488         2.77232       -12.74992
   C      -10.78256         0.18573       -12.26504
   N      -10.60750        -0.79733       -11.69798
   H       -2.80440        -0.63174       -11.09126
   H        0.11884        -4.62341       -11.40816
   H       -3.55335        -1.32765        -8.87683
   H       -0.65333        -5.37339        -9.15490
   H       -4.35017        -4.19903        -4.20717
   H       -1.14909        -6.15289        -3.97444
   H       -4.50613        -8.81679        -2.53896
   H       -6.80807        -4.61911        -6.25838
   H       -8.51265        -5.90772        -4.03739
   H      -12.22774        -5.19107        -4.02632
   H      -10.64930        -5.56311        -3.29390
   H      -11.85410        -6.92139        -5.76440
   H      -11.75085        -7.63111        -4.15033
   H      -10.27690        -7.31333        -5.07101
   H       -9.12783        -0.84263        -9.75981
   H       -7.52478        -1.36024        -9.19398
   H       -9.05089         0.90683        -7.82020
   H       -7.87409         1.15690        -9.11150
   H       -7.36926         0.42438        -7.58922
   H      -12.45106        -1.74828        -7.85308
   H      -10.70488         0.45718        -9.07096
   H      -14.25807        -1.20656        -9.11423
   H      -14.43861         2.83097       -11.10411
   H      -10.47515         4.80594       -10.77738
   H      -10.39264         5.74321       -13.03778
   H      -12.07053         5.11991       -14.69373
   H      -15.79721         1.62138       -15.96570
   H      -14.68424        -2.48857       -12.39618
   H      -17.42963        -0.26139       -15.87111
   H      -13.05439        -0.67431       -12.48789
*
