# ORCA input file
# SCF done       -180.690665489456          0.000742401445
! CAM-B3LYP def2-SVP def2/J RIJCOSX Grid4 TightSCF
%maxcore 5000
%tddft
    Mode sTDDFT
    Ethresh 5.0
    maxcore 5000
end

%pal
  nprocs 6
  end
* xyz 0 1
   C       -1.19899        -3.33706         0.87225
   N       -0.81493        -2.07561         1.23955
   C        0.23292        -1.75169         0.43795
   N        0.93807        -0.63639         0.37979
   C        1.86856        -0.69182        -0.55328
   N        2.79300         0.21966        -0.91233
   C        3.51657        -0.32793        -1.94440
   N        3.10696        -1.54844        -2.25281
   C        2.08122        -1.82959        -1.43232
   N        1.34330        -2.92183        -1.36552
   C        0.42388        -2.89394        -0.42189
   N       -0.50101        -3.83904        -0.09507
   C        4.62057         0.30456        -2.58702
   C        5.43456         1.37393        -2.18438
   N        5.28753         2.31831        -1.16046
   O        4.23604         2.37100        -0.52071
   O        6.21384         3.07888        -0.95891
   C        6.58150         1.42996        -3.04453
   C        6.50949         0.41222        -3.93992
   C        5.28130        -0.30088        -3.73042
   C        4.75515        -1.24584        -4.60613
   C        3.40247        -1.37848        -5.00300
   C        3.33957        -2.16622        -6.12379
   C        4.64811        -2.61998        -6.44994
   N        4.91125        -3.47847        -7.52872
   O        6.06462        -3.83030        -7.73382
   O        3.96589        -3.81408        -8.22072
   C        5.55494        -2.10990        -5.50753
   C        6.89270        -2.47932        -5.35666
   C        7.64495        -2.32002        -4.21321
   C        9.00594        -2.64066        -4.11875
   C        9.78261        -2.52754        -2.96632
   C       11.11416        -2.89821        -3.25811
   C       11.13039        -3.26434        -4.68878
   C        9.87673        -3.10858        -5.18733
   C       12.23668        -3.70176        -5.42809
   N       13.12426        -4.06151        -6.06164
   C       12.19605        -2.91538        -2.39719
   C       13.53832        -3.25511        -2.68759
   C       14.30482        -3.12266        -1.54566
   C       13.42413        -2.68837        -0.46682
   C       12.16618        -2.56038        -0.95895
   C       11.04915        -2.16605        -0.21513
   N       10.15137        -1.84026         0.42378
   C       15.70270        -3.35730        -1.46075
   C       16.41648        -3.20291        -0.32618
   N       17.77226        -3.39686        -0.19451
   C       18.42005        -3.19103         1.05359
   O       17.84063        -2.86309         2.05385
   C       19.83520        -3.45560         0.81651
   C       20.02788        -3.79895        -0.48035
   C       18.69297        -3.77573        -1.16947
   O       18.43856        -4.02279        -2.31755
   C       21.24392        -4.12535        -1.14790
   C       22.50736        -4.09832        -0.60231
   C       23.45637        -4.47903        -1.60432
   C       22.67144        -4.75325        -2.81949
   C       21.35932        -4.53711        -2.53858
   C       23.17248        -5.16664        -4.05994
   N       23.56285        -5.50879        -5.08438
   C       24.81942        -4.55873        -1.46906
   C       25.77598        -4.92664        -2.46415
   C       27.03558        -4.86954        -1.92685
   C       26.90918        -4.45215        -0.53200
   C       25.59827        -4.26395        -0.24297
   C       25.09233        -3.86216         0.99740
   N       24.70542        -3.53070         2.02736
   C       28.30111        -5.14890        -2.54400
   C       28.45841        -5.53327        -3.81331
   H       -2.00962        -3.85038         1.35146
   H       -1.21082        -1.49547         1.96131
   H        3.00209         1.13486        -0.50758
   H        7.34353         2.18078        -2.96245
   H        7.18715         0.22800        -4.75032
   H        2.57955        -0.85598        -4.55977
   H        2.46358        -2.41600        -6.69289
   H        7.32857        -3.00654        -6.19602
   H        7.17087        -1.95684        -3.31088
   H        9.42489        -2.19943        -2.01005
   H        9.57364        -3.30070        -6.19930
   H       13.90256        -3.56051        -3.64859
   H       13.72262        -2.50159         0.54733
   H       16.19387        -3.66825        -2.37107
   H       15.96543        -2.89704         0.60967
   H       20.56958        -3.37380         1.59528
   H       22.75906        -3.83005         0.40415
   H       20.53038        -4.64553        -3.21158
   H       25.52099        -5.19972        -3.46806
   H       27.73684        -4.32087         0.14113
   H       29.16819        -5.02901        -1.90663
   H       27.62106        -5.66315        -4.47723
   H       29.43399        -5.72872        -4.22311
*
