# ORCA input file
# SCF done       -225.915614816931          0.000480132615
! CAM-B3LYP def2-SVP def2/J RIJCOSX Grid4 TightSCF
%maxcore 5000
%tddft
    Mode sTDDFT
    Ethresh 5.0
    maxcore 5000
end

%pal
  nprocs 6
  end
* xyz 0 1
   C       -3.90833         0.43383         6.02384
   O       -4.72077        -0.22974         5.43308
   C       -2.93540        -0.00280         7.05310
   C       -1.93680         0.97715         7.20663
   C       -0.90477         0.79716         8.11345
   C       -0.89223        -0.36976         8.86221
   C       -1.87229        -1.35176         8.72032
   C       -2.90592        -1.16779         7.79887
   F       -3.83378        -2.10579         7.66296
   F       -1.81932        -2.46074         9.45956
   F        0.08815        -0.56338         9.74621
   C       -2.22144         2.09836         6.31276
   C       -1.40409         3.16631         6.06539
   C       -0.13706         3.35519         6.65913
   N        0.89850         3.55883         7.10810
   C       -1.70955         4.19005         5.14194
   N       -1.91037         5.03352         4.39022
   C       -3.52677         1.85225         5.73338
   C       -4.35139         2.71842         5.10097
   C       -5.72505         2.44710         4.80898
   C       -6.70372         1.91426         5.63842
   N       -6.60193         1.49444         6.97567
   O       -5.50148         1.46785         7.51673
   O       -7.63605         1.21299         7.55025
   C       -7.97644         1.99235         4.97126
   C       -7.80211         2.59763         3.76799
   C       -6.41215         2.91625         3.60706
   C       -5.76924         3.45256         2.50220
   C       -4.41643         3.23362         2.14969
   C       -4.19420         3.76490         0.90673
   C       -5.37867         4.39288         0.43149
   N       -5.37196         5.00226        -0.83124
   O       -4.29573         5.10046        -1.39448
   O       -6.42167         5.38966        -1.33446
   C       -6.38353         4.26826         1.42260
   C       -7.61060         4.88955         1.62481
   C       -8.30491         5.70096         0.74186
   C       -9.51890         6.29867         1.01767
   S      -10.37206         6.11288         2.52728
   C      -11.65916         7.17482         2.04208
   C      -11.47380         7.61383         0.70227
   C      -10.26417         7.13430         0.13364
   C       -9.91074         7.46920        -1.17505
   C      -10.75474         8.25197        -1.93751
   C      -10.40319         8.63140        -3.33708
   C      -11.97747         8.67561        -1.38826
   C      -12.34390         8.36451        -0.10291
   C      -12.66098         7.45316         2.97880
   C      -13.53310         8.51273         2.94548
   C      -14.57436         8.72835         3.86234
   C      -15.40962         9.84065         3.86905
   C      -16.38314         9.69150         4.88121
   C      -16.09930         8.39695         5.53406
   C      -15.01991         7.84015         4.92757
   C      -16.79638         7.83705         6.61244
   N      -17.34589         7.36300         7.50257
   C      -17.41760        10.55367         5.19677
   C      -18.45924        10.33477         6.13027
   C      -19.32628        11.41431         6.11022
   C      -18.81040        12.37549         5.14495
   C      -17.67673        11.87404         4.58974
   C      -16.89337        12.51186         3.62196
   N      -16.26386        13.04961         2.82540
   C      -20.53542        11.57628         6.82331
   C      -21.03287        10.65246         7.69589
   C      -22.28649        10.79388         8.32084
   C      -22.96330         9.84787         9.03753
   C      -24.08952        10.26893         9.91471
   O      -24.64034        11.34046         9.91384
   C      -24.33402         9.10406        10.79996
   C      -23.50791         8.03251        10.41091
   C      -22.74793         8.43077         9.22169
   C      -22.14852         7.55989         8.35065
   C      -22.05566         6.16732         8.57104
   N      -21.94814         5.03294         8.70118
   C      -21.65591         7.90092         7.07141
   N      -21.28553         8.09336         6.00255
   C      -23.52152         6.83962        11.11254
   C      -24.37840         6.73162        12.19895
   C      -25.21498         7.77649        12.58870
   C      -25.19066         8.98028        11.88041
   F      -25.98280         9.97652        12.25777
   F      -26.02999         7.62940        13.63432
   F      -24.40332         5.59477        12.89465
   H       -0.12285         1.52287         8.26606
   H       -3.99682         3.70184         4.81848
   H       -8.88735         1.61316         5.39315
   H       -8.55240         2.71136         3.00986
   H       -3.71939         2.64407         2.71199
   H       -3.28254         3.72211         0.34024
   H       -8.05887         4.73687         2.59879
   H       -7.88618         5.87174        -0.23931
   H       -8.98608         7.10468        -1.59440
   H       -9.46243         8.18150        -3.64067
   H      -10.31664         9.71433        -3.41992
   H      -11.18557         8.31186        -4.02393
   H      -12.64936         9.25404        -2.00471
   H      -13.30879         8.66983         0.26518
   H      -12.69276         6.79118         3.83484
   H      -13.41017         9.27751         2.19231
   H      -15.33802        10.67619         3.20044
   H      -14.57349         6.89752         5.18270
   H      -18.56790         9.44471         6.71567
   H      -19.26738        13.32175         4.92081
   H      -21.11784        12.46434         6.61118
   H      -20.44437         9.77595         7.92027
   H      -22.76135        11.76929         8.28409
   H      -22.89389         6.00104        10.85984
*
