# ORCA input file
# SCF done       -228.186204679116          0.000400344083
! CAM-B3LYP def2-SVP def2/J RIJCOSX Grid4 TightSCF
%maxcore 5000
%tddft
    Mode sTDDFT
    Ethresh 5.0
    maxcore 5000
end

%pal
  nprocs 6
  end
* xyz 0 1
   C       -2.90082         3.81264        -0.43619
   C       -2.03266         4.51395         0.35221
   F       -1.71132         5.77671         0.04260
   C       -1.46531         3.92099         1.49843
   F       -0.61776         4.63296         2.25314
   C       -1.77320         2.63389         1.83935
   C       -2.66443         1.88441         1.04685
   C       -3.24141         2.48398        -0.11043
   C       -4.14534         1.75485        -0.91517
   C       -4.46690         0.46766        -0.57020
   C       -3.87788        -0.12683         0.58061
   C       -2.99761         0.55135         1.37372
   C       -4.36500        -1.51136         0.73028
   O       -4.00268        -2.32403         1.54762
   C       -5.30044        -1.72303        -0.41488
   C       -5.37103        -0.49631        -1.18616
   C       -6.20380        -0.25403        -2.24540
   C       -6.26272         0.97174        -2.94185
   N       -6.34931         1.94094        -3.55031
   C       -7.12828        -1.18319        -2.76838
   N       -7.90848        -1.88512        -3.23365
   C       -5.84703        -2.92427        -0.72687
   C       -5.84661        -4.05409         0.14906
   S       -5.34260        -5.58764        -0.49335
   C       -5.48449        -6.35004         1.06099
   C       -5.95967        -5.45595         2.00399
   C       -6.19140        -4.16586         1.48006
   C       -6.94931        -3.16253         2.30113
   F       -6.72156        -1.85335         1.93451
   C       -6.63996        -3.36106         3.77964
   C       -7.05352        -4.77244         4.17157
   C       -6.19018        -5.79953         3.44379
   F       -6.79941        -7.04439         3.54267
   C       -5.09210        -7.71348         1.25721
   N       -5.35952        -8.72752         0.37054
   C       -6.13032        -8.66992        -0.84880
   C       -5.22906        -8.59814        -2.07840
   C       -4.85157        -9.96129         0.81855
   O       -4.99478       -11.00147         0.20442
   C       -4.20354        -9.64901         2.06692
   C       -4.37082        -8.25779         2.31161
   C       -3.65340        -7.93859         3.52611
   O       -3.48192        -6.89312         4.12490
   N       -3.10678        -9.16077         3.94295
   C       -2.36601        -9.26996         5.17597
   C       -3.21216        -9.88056         6.29008
   C       -3.42510       -10.18843         3.08631
   C       -2.97563       -11.52377         3.24229
   C       -3.41101       -12.51826         2.42935
   C       -2.95429       -13.85675         2.47136
   S       -1.63112       -14.36965         3.46874
   C       -1.64054       -15.96280         2.76338
   C       -2.68774       -16.09794         1.86801
   C       -3.42449       -14.91179         1.70222
   C       -4.59774       -14.76672         0.77491
   F       -5.69169       -14.31674         1.50177
   C       -4.99637       -16.07513         0.08771
   C       -3.79437       -16.97680        -0.15423
   C       -3.17845       -17.34366         1.19280
   F       -2.19557       -18.29559         1.01839
   C       -0.62546       -16.86132         3.21097
   C        0.17530       -17.71076         2.52384
   C        0.94116       -18.73798         3.29108
   O        1.08582       -18.77826         4.49005
   C        1.42848       -19.69481         2.28081
   C        2.08206       -20.87913         2.46735
   C        2.42641       -21.65806         1.34038
   C        2.07768       -21.19500         0.03811
   C        2.41571       -21.98140        -1.08189
   C        3.07195       -23.16860        -0.91731
   C        3.41823       -23.62442         0.37088
   C        3.10268       -22.88620         1.47685
   F        4.06099       -24.79244         0.50200
   F        3.39368       -23.91366        -1.98269
   C        1.40649       -19.96203        -0.12384
   C        1.09268       -19.21717         0.98205
   C        0.43611       -17.92030         1.11189
   C        0.28829       -17.01130         0.10095
   C       -0.17354       -15.69101         0.26381
   N       -0.51681       -14.59675         0.31739
   C        0.62471       -17.26840        -1.24524
   N        0.85910       -17.41688        -2.35885
   H       -3.32776         4.28197        -1.30872
   H       -1.33015         2.19445         2.71927
   H       -4.56071         2.23350        -1.78728
   H       -2.56601         0.07764         2.24220
   H       -6.25407        -3.09344        -1.71621
   H       -8.02684        -3.31331         2.11675
   H       -7.18794        -2.62155         4.36469
   H       -5.57061        -3.21302         3.93987
   H       -8.10036        -4.94365         3.90692
   H       -6.95011        -4.91840         5.24680
   H       -5.21285        -5.90633         3.94035
   H       -6.81012        -7.81711        -0.80854
   H       -6.71762        -9.59237        -0.89110
   H       -4.59093        -7.71839        -2.04237
   H       -5.83742        -8.55278        -2.97684
   H       -4.60277        -9.48525        -2.12353
   H       -2.07806        -8.25030         5.44655
   H       -1.45991        -9.85898         5.00833
   H       -4.09172        -9.26646         6.46684
   H       -2.63247        -9.93154         7.20751
   H       -3.53914       -10.88336         6.02465
   H       -2.26365       -11.74262         4.02663
   H       -4.14972       -12.29112         1.67296
   H       -4.38932       -13.97336         0.04386
   H       -5.49933       -15.85303        -0.85314
   H       -5.71114       -16.58769         0.73659
   H       -3.04725       -16.46586        -0.76587
   H       -4.09975       -17.88764        -0.67077
   H       -3.92973       -17.83101         1.83453
   H       -0.45036       -16.85497         4.28495
   H        2.33028       -21.21853         3.46144
   H        2.16066       -21.64573        -2.07489
   H        3.37410       -23.24929         2.45570
   H        1.14489       -19.64223        -1.11953
*
