# ORCA input file
# SCF done       -232.871383731447          0.000573188534
! CAM-B3LYP def2-SVP def2/J RIJCOSX Grid4 TightSCF
%maxcore 5000
%tddft
    Mode sTDDFT
    Ethresh 5.0
    maxcore 5000
end

%pal
  nprocs 6
  end
* xyz 0 1
   C       -0.03991        -4.31986        -6.19685
   C        0.62257        -5.49853        -6.39626
   F        1.88011        -5.49530        -6.85269
   C       -0.00784        -6.73064        -6.12568
   F        0.66452        -7.86952        -6.33251
   C       -1.29180        -6.76651        -5.65876
   C       -2.00151        -5.56881        -5.44359
   C       -1.36512        -4.32252        -5.71664
   C       -2.05687        -3.10830        -5.50713
   C       -3.34403        -3.13948        -5.03782
   C       -3.97524        -4.38890        -4.77312
   C       -3.33085        -5.57783        -4.96721
   C       -5.35291        -4.15769        -4.30714
   O       -6.18693        -4.99426        -4.03399
   C       -5.53283        -2.68150        -4.32567
   C       -4.27628        -2.06623        -4.71615
   C       -3.99759        -0.72817        -4.69074
   C       -4.89948         0.25285        -4.22315
   N       -5.57528         1.08182        -3.80770
   C       -2.75828        -0.17112        -5.07271
   N       -1.77230         0.32995        -5.37699
   C       -6.74073        -2.08380        -4.18064
   C       -7.91135        -2.76348        -3.71893
   C       -9.12130        -2.84590        -4.37975
   N       -9.38824        -2.27171        -5.63629
   O       -8.45918        -1.72863        -6.21481
   O      -10.52164        -2.35002        -6.06839
   C      -10.02962        -3.67674        -3.63485
   C       -9.37358        -4.14282        -2.54461
   C       -8.03325        -3.60194        -2.53025
   C       -7.09145        -3.70958        -1.52905
   C       -6.12439        -2.73067        -1.16180
   C       -5.58394        -3.07791         0.04304
   C       -6.12381        -4.33788         0.45482
   N       -5.71164        -5.00362         1.61853
   O       -6.21709        -6.08517         1.88360
   O       -4.86791        -4.45809         2.30847
   C       -7.02264        -4.78684        -0.51310
   C       -7.63304        -6.04569        -0.59829
   C       -8.07304        -6.61627        -1.76666
   C       -8.81097        -7.81098        -1.83587
   S       -9.36879        -8.38209        -3.38582
   C      -10.24473        -9.67331        -2.63307
   C      -10.02875        -9.68882        -1.24490
   C       -9.23507        -8.64484        -0.80241
   C      -10.49673       -10.75175        -0.29549
   O      -11.39128       -10.57776         0.48989
   C       -9.66028       -12.00068        -0.36511
   C      -11.16000       -10.51985        -3.31285
   S      -12.34474       -11.36581        -2.35501
   C      -11.32770       -10.80525        -4.66776
   C      -10.51878       -10.22905        -5.74783
   O       -9.67050        -9.36467        -5.56553
   C      -10.84844       -10.75645        -7.05408
   C      -10.28727       -10.46910        -8.28215
   N      -10.93209       -11.18619        -9.22900
   C      -10.68082       -11.10774       -10.64692
   C      -11.53767       -10.02163       -11.29364
   C      -11.90951       -11.92521        -8.65361
   C      -11.89411       -11.69468        -7.29504
   C      -12.72861       -12.25548        -6.24889
   O      -13.61553       -13.06691        -6.43519
   C      -12.37680       -11.72982        -4.90987
   C      -13.02910       -12.13450        -3.75669
   C      -14.17900       -12.96517        -3.66090
   C      -14.58878       -13.69798        -2.59688
   C      -16.02125       -14.11389        -2.48343
   O      -16.84841       -14.10731        -3.36010
   C      -16.20394       -14.45044        -1.05658
   C      -17.35580       -14.75417        -0.38915
   C      -17.29789       -15.00890         0.99937
   C      -16.04427       -14.93363         1.67497
   C      -15.99767       -15.17600         3.06274
   C      -17.13993       -15.48434         3.74670
   C      -18.37843       -15.56275         3.07699
   C      -18.45710       -15.32982         1.73249
   F      -19.48072       -15.86720         3.77254
   F      -17.09426       -15.71630         5.06366
   C      -14.86678       -14.62432         0.95748
   C      -14.94557       -14.39545        -0.39040
   C      -13.91380       -14.09056        -1.37414
   C      -12.58175       -14.37295        -1.24234
   C      -11.65045       -14.27743        -2.29720
   N      -10.85371       -14.23189        -3.12261
   C      -11.99509       -14.85137        -0.05233
   N      -11.45809       -15.22390         0.89072
   H        0.45731        -3.38593        -6.40752
   H       -1.75951        -7.71728        -5.45641
   H       -1.55299        -2.18125        -5.72861
   H       -3.82989        -6.51227        -4.75981
   H       -6.87569        -1.05244        -4.48592
   H      -11.04214        -3.86847        -3.93304
   H       -9.79251        -4.72835        -1.74982
   H       -5.95846        -1.80856        -1.68522
   H       -4.86942        -2.52198         0.62111
   H       -7.68148        -6.61058         0.32385
   H       -7.83480        -6.14250        -2.70971
   H       -8.96592        -8.50835         0.22973
   H       -8.64695       -11.75303        -0.05090
   H       -9.60602       -12.37715        -1.38477
   H      -10.06036       -12.76424         0.29727
   H       -9.47350        -9.81181        -8.51644
   H      -10.90748       -12.07897       -11.09346
   H       -9.62111       -10.89008       -10.80033
   H      -12.59380       -10.22965       -11.14013
   H      -11.34211        -9.98290       -12.36123
   H      -11.30993        -9.05010       -10.86186
   H      -12.55012       -12.56898        -9.22291
   H      -14.83754       -12.95906        -4.52525
   H      -18.29864       -14.79802        -0.91268
   H      -15.05801       -15.12253         3.58989
   H      -19.41247       -15.39237         1.23548
   H      -13.93234       -14.56005         1.49204
*
