# ORCA input file
# SCF done       -180.458721377843          0.000659113169
! CAM-B3LYP def2-SVP def2/J RIJCOSX Grid4 TightSCF
%maxcore 5000
%tddft
    Mode sTDDFT
    Ethresh 5.0
    maxcore 5000
end

%pal
  nprocs 6
  end
* xyz 0 1
   C       -2.20310         0.21339        -9.31554
   C       -1.85316        -0.76636        -8.44353
   C       -2.57741        -1.99208        -8.61299
   C       -3.58552        -1.96682        -9.63282
   O       -4.40967        -2.75822        -9.97674
   S       -3.45579        -0.27552       -10.39036
   C       -2.12179        -2.87509        -7.66281
   O       -1.17624        -2.27891        -6.88547
   C       -0.94331        -0.97131        -7.32597
   O       -0.13624        -0.26701        -6.79451
   C       -2.49271        -4.22347        -7.39547
   C       -2.79266        -5.22595        -8.31694
   N       -2.67216        -5.18496        -9.72464
   O       -3.14929        -6.11277       -10.34721
   O       -2.04436        -4.26827       -10.22312
   C       -3.06795        -6.44111        -7.61497
   C       -2.88297        -6.22169        -6.28506
   C       -2.52576        -4.84250        -6.08568
   C       -2.40124        -4.20689        -4.85385
   C       -2.80215        -2.89915        -4.51615
   C       -2.80367        -2.77158        -3.14480
   C       -2.33497        -3.97447        -2.56019
   N       -2.16732        -4.15049        -1.18070
   O       -1.73722        -5.22266        -0.77371
   O       -2.47325        -3.22198        -0.45271
   C       -2.01233        -4.88029        -3.58936
   C       -1.30522        -6.06752        -3.46854
   C       -0.64712        -6.71108        -4.50489
   C       -0.03343        -7.94698        -4.39090
   S       -0.07231        -8.87294        -2.91471
   C        0.84789       -10.16725        -3.59829
   C        1.16950        -9.90578        -4.95024
   C        0.66956        -8.65586        -5.40414
   C        0.87651        -8.25580        -6.72717
   C        1.57402        -9.07116        -7.59357
   C        1.80351        -8.67620        -9.01420
   C        2.07714       -10.30324        -7.12990
   C        1.88625       -10.72262        -5.84054
   C        1.18397       -11.31525        -2.84955
   C        0.76914       -11.52000        -1.57328
   C        1.08494       -12.66340        -0.75957
   C        2.25729       -13.39927        -1.00841
   C        2.59045       -14.42636        -0.16293
   C        1.78554       -14.75161         0.93737
   C        2.41856       -15.89386         1.64451
   O        2.04877       -16.48823         2.62237
   N        3.57138       -16.17696         0.92344
   C        3.75443       -15.34891        -0.17115
   O        4.67249       -15.40831        -0.94819
   C        4.50884       -17.21303         1.30464
   C        5.55105       -16.67996         2.28099
   C        0.62751       -14.06109         1.19791
   C        0.25290       -13.01257         0.34130
   C       -1.01021       -12.34233         0.52994
   C       -1.71729       -12.27891         1.67888
   C       -2.96266       -11.60281         1.77376
   C       -3.74196       -11.48261         2.89443
   C       -4.95909       -10.74157         2.72623
   C       -5.18113       -10.23462         1.39183
   O       -6.06967        -9.60523         0.90936
   S       -3.71876       -10.77715         0.41329
   C       -5.58341       -10.73388         3.93412
   O       -4.88096       -11.40210         4.85744
   C       -3.70130       -11.90799         4.28033
   O       -2.90610       -12.54714         4.90723
   H       -1.79427         1.20343        -9.38839
   H       -3.35554        -7.35408        -8.09953
   H       -3.07039        -6.91744        -5.49049
   H       -3.16754        -2.16564        -5.20782
   H       -3.11167        -1.91238        -2.57810
   H       -1.21012        -6.47246        -2.46707
   H       -0.56949        -6.21532        -5.46183
   H        0.48611        -7.31128        -7.07333
   H        1.35021        -7.71430        -9.23585
   H        1.38206        -9.42391        -9.68480
   H        2.87145        -8.61624        -9.22056
   H        2.62325       -10.92882        -7.81996
   H        2.27721       -11.67292        -5.51306
   H        1.77141       -12.06473        -3.35990
   H        0.14940       -10.75625        -1.12273
   H        2.91102       -13.13968        -1.82573
   H        4.98884       -17.57013         0.39054
   H        3.93464       -18.02052         1.76493
   H        6.11165       -15.86599         1.82693
   H        6.24238       -17.47373         2.54837
   H        5.06818       -16.31742         3.18547
   H        0.00280       -14.34459         2.02968
   H       -1.43950       -11.85449        -0.33571
   H       -1.36575       -12.71563         2.60354
   H       -6.51221       -10.29371         4.24887
*
