# ORCA input file
# SCF done       -172.658289099127          0.000690499466
! CAM-B3LYP def2-SVP def2/J RIJCOSX Grid4 TightSCF
%maxcore 5000
%tddft
    Mode sTDDFT
    Ethresh 5.0
    maxcore 5000
end

%pal
  nprocs 6
  end
* xyz 0 1
   C        0.09769        -2.03910         4.50551
   S       -0.54533        -3.22086         3.43624
   C        0.91816        -3.27004         2.51665
   C        1.87596        -2.40135         3.05809
   C        1.36806        -1.70242         4.19369
   C        3.24498        -2.32077         2.60938
   O        3.75324        -2.90083         1.67836
   C        4.16444        -1.39651         3.46561
   F        4.22191        -1.78130         4.75265
   F        5.40916        -1.39998         3.00038
   F        3.74483        -0.11845         3.46200
   C        0.96299        -4.13665         1.38315
   S       -0.06493        -5.55133         1.37819
   C        0.44874        -5.98644        -0.21763
   C        1.36931        -5.05142        -0.70436
   C        1.65466        -4.01781         0.19845
   C        1.92668        -5.15938        -1.99039
   N        2.35475        -5.27171        -3.04834
   C       -0.00987        -7.13109        -0.91013
   C       -0.90628        -8.00764        -0.38366
   C       -1.45692        -9.18883        -0.93027
   N       -1.24913        -9.80253        -2.14319
   C       -0.43502        -9.36308        -3.25199
   C       -1.10591        -8.24470        -4.04570
   C       -2.01043       -10.98400        -2.26468
   O       -1.98841       -11.69185        -3.25121
   C       -2.72758       -11.09172        -1.01255
   C       -2.36739        -9.98282        -0.22563
   C       -3.06225       -10.07305         1.04264
   O       -3.05954        -9.35838         2.02093
   N       -3.80832       -11.26139         0.93505
   C       -4.68268       -11.69325         2.00010
   C       -6.14151       -11.34488         1.71685
   C       -3.62871       -11.87987        -0.28029
   C       -4.25724       -13.08488        -0.64780
   C       -4.06757       -13.67922        -1.86352
   C       -4.69302       -14.88316        -2.25625
   C       -5.59091       -15.66916        -1.55727
   C       -5.96047       -16.78516        -2.35363
   C       -5.21667       -16.64646        -3.62303
   C       -4.47149       -15.51504        -3.55189
   C       -5.25921       -17.52000        -4.71587
   N       -5.27806       -18.21727        -5.62847
   C       -6.83657       -17.79457        -2.02017
   C       -7.22066       -18.91448        -2.81499
   C       -8.11732       -19.67898        -2.10753
   C       -8.32938       -19.05130        -0.81607
   C       -7.57149       -17.92366        -0.74910
   C       -7.51732       -17.05468         0.34452
   N       -7.49266       -16.35132         1.25352
   C       -8.75500       -20.88283        -2.52971
   S       -9.86563       -21.72871        -1.47063
   C      -10.14498       -22.93193        -2.63034
   C       -9.42893       -22.71761        -3.79187
   C       -8.63673       -21.54230        -3.72311
   C       -9.44239       -23.55518        -4.97733
   O       -8.82088       -23.35730        -5.98859
   C      -10.36131       -24.80972        -4.87821
   F       -9.99971       -25.61103        -3.85931
   F      -11.64439       -24.46940        -4.65662
   F      -10.33123       -25.54022        -5.98639
   H       -0.50863        -1.66439         5.30552
   H        1.92390        -0.97714         4.75699
   H        2.33329        -3.21617        -0.02297
   H        0.40858        -7.25694        -1.89732
   H       -1.27951        -7.80530         0.61483
   H       -0.31305       -10.23912        -3.89611
   H        0.55055        -9.06281        -2.88869
   H       -2.02534        -8.61133        -4.49552
   H       -0.44177        -7.90756        -4.83634
   H       -1.34865        -7.39729        -3.40843
   H       -4.34731       -11.16542         2.89716
   H       -4.56330       -12.76823         2.15886
   H       -6.25251       -10.26891         1.60679
   H       -6.76319       -11.67651         2.54341
   H       -6.48960       -11.82496         0.80511
   H       -4.91386       -13.54995         0.07259
   H       -3.40435       -13.21359        -2.58095
   H       -5.96732       -15.48475        -0.57142
   H       -3.81621       -15.12628        -4.30926
   H       -6.85827       -19.11201        -3.80344
   H       -8.98296       -19.43110        -0.05214
   H      -10.81995       -23.73232        -2.39961
   H       -8.01422       -21.21973        -4.53688
*
