# ORCA input file
# SCF done       -225.092562919426          0.000643658455
! CAM-B3LYP def2-SVP def2/J RIJCOSX Grid4 TightSCF
%maxcore 5000
%tddft
    Mode sTDDFT
    Ethresh 5.0
    maxcore 5000
end

%pal
  nprocs 6
  end
* xyz 0 1
   C       -5.24771         4.66710        13.94052
   C       -5.14062         3.57198        13.14153
   C       -6.33920         3.44411        12.36978
   O       -6.53684         2.34648        11.66295
   C       -7.83930         1.89593        11.32416
   C       -7.17399         4.56211        12.64397
   C       -6.53660         5.28500        13.75217
   C       -7.00984         6.30842        14.53392
   C       -6.22933         7.02603        15.50294
   C       -7.03372         7.95388        16.09276
   O       -6.78212         8.87587        17.01689
   C       -5.46416         8.95367        17.51613
   C       -8.39074         7.82362        15.53861
   C       -8.37728         6.85626        14.61344
   C       -8.21969         5.07451        11.87842
   C       -8.45065         4.76883        10.54555
   C       -9.50865         5.18874         9.74526
   C      -10.81701         5.64900        10.02961
   N      -11.40845         6.06315        11.21898
   O      -10.70621         6.34940        12.18764
   O      -12.62915         6.13704        11.24679
   C      -11.58709         5.56879         8.83885
   C      -10.81058         5.09268         7.81090
   C       -9.50245         4.88257         8.29285
   C       -8.36546         4.56203         7.55489
   C       -7.04193         5.00019         7.83313
   C       -6.21894         4.57370         6.82949
   C       -6.97422         3.79792         5.90183
   N       -6.34778         3.24084         4.78165
   O       -7.02536         2.81122         3.85595
   O       -5.12621         3.22847         4.77319
   C       -8.31615         3.76076         6.32703
   C       -9.40562         2.93499         5.98917
   C       -9.50603         2.00975         4.99052
   C      -10.60877         1.14442         4.83622
   S      -10.97073         0.58888         3.23415
   C      -12.44808        -0.15825         3.72955
   C      -12.61119        -0.07725         5.11572
   C      -11.55869         0.65921         5.75767
   C      -11.53935         0.71556         7.17494
   C      -10.46254         1.19809         7.95251
   N       -9.64188         1.49086         8.70035
   C      -12.58006         0.15662         7.90262
   C      -13.60119        -0.55319         7.27546
   C      -13.60393        -0.72071         5.90337
   C      -14.51901        -1.64625         5.35473
   N      -15.23534        -2.45997         4.98048
   C      -13.35614        -0.67205         2.75653
   S      -12.80419        -1.51839         1.34377
   C      -14.41884        -1.74879         0.75279
   C      -15.34588        -1.14454         1.62241
   C      -14.72041        -0.53100         2.72923
   C      -16.78576        -1.11127         1.46170
   O      -17.48561        -1.88028         0.84863
   C      -17.49609         0.06918         2.19108
   F      -16.85543         1.23757         2.03483
   F      -18.73097         0.22958         1.72581
   F      -17.59671        -0.13608         3.51682
   C      -14.51136        -2.37038        -0.51800
   C      -15.63256        -2.68202        -1.21674
   C      -15.58579        -3.19234        -2.53623
   C      -16.62844        -3.22105        -3.41041
   C      -16.58211        -4.09346        -4.61602
   O      -15.60712        -4.63845        -5.07750
   C      -17.98249        -4.18727        -5.07501
   C      -18.50476        -4.95561        -6.07545
   C      -19.89432        -4.90694        -6.32500
   C      -20.71949        -4.06633        -5.52232
   C      -22.10629        -4.02813        -5.77145
   C      -22.64728        -4.78516        -6.77234
   C      -21.82986        -5.61470        -7.56666
   C      -20.48211        -5.67559        -7.34865
   F      -22.38786        -6.34619        -8.54040
   F      -23.96459        -4.74625        -7.00957
   C      -20.15008        -3.27858        -4.49589
   C      -18.79857        -3.33032        -4.28086
   C      -17.94195        -2.61266        -3.33873
   C      -18.27324        -1.45176        -2.69220
   C      -17.35778        -0.62007        -2.01219
   N      -16.65469         0.12618        -1.49594
   C      -19.56349        -0.87940        -2.73505
   N      -20.59727        -0.38203        -2.74497
   H       -4.51551         4.99287        14.65331
   H       -4.32728         2.87340        13.09342
   H       -7.85778         0.83065        11.56101
   H       -8.03218         2.01364        10.25709
   H       -8.60818         2.41356        11.89731
   H       -5.18335         6.87539        15.67866
   H       -5.46373         9.75400        18.25334
   H       -4.75713         9.18904        16.71563
   H       -5.17052         8.01331        17.99106
   H       -9.21835         8.42366        15.86244
   H       -9.22972         6.51148        14.06403
   H       -8.81708         5.85813        12.31189
   H       -7.70168         4.18166        10.03400
   H      -12.61801         5.86664         8.78367
   H      -11.11691         5.02443         6.78458
   H       -6.76808         5.66457         8.63059
   H       -5.17200         4.78048         6.71232
   H      -10.26392         3.05475         6.63462
   H       -8.75515         1.97421         4.21322
   H      -12.56349         0.22570         8.97978
   H      -14.36627        -1.02855         7.86999
   H      -15.24785         0.00906         3.49299
   H      -13.55218        -2.56013        -0.98789
   H      -16.60337        -2.54573        -0.76788
   H      -14.66290        -3.64676        -2.88154
   H      -17.86603        -5.59228        -6.66852
   H      -22.74551        -3.39615        -5.17498
   H      -19.87025        -6.31553        -7.96492
   H      -20.79913        -2.65951        -3.89766
*
