# ORCA input file
# SCF done       -188.671310546840          0.000986190367
! CAM-B3LYP def2-SVP def2/J RIJCOSX Grid4 TightSCF
%maxcore 5000
%tddft
    Mode sTDDFT
    Ethresh 5.0
    maxcore 5000
end

%pal
  nprocs 6
  end
* xyz 0 1
   C        4.71329        -0.14796        -0.73024
   S        4.19208         1.43868        -1.06313
   C        2.59186         1.09541        -0.46323
   C        2.49206        -0.20877        -0.03131
   C        3.71671        -0.91586        -0.19451
   N        3.89449        -2.29106         0.15337
   O        5.01397        -2.74277         0.03546
   O        2.92155        -2.90336         0.52756
   C        1.28330        -0.74126         0.46235
   N        0.25401        -1.09599         0.81639
   C        1.57557         2.11544        -0.41681
   C        0.90106         2.56580         0.69469
   N        1.07866         2.14392         2.03573
   O        0.28927         2.55647         2.85676
   O        2.02888         1.42209         2.27915
   C        0.02487         3.65065         0.31665
   C        0.20763         3.90581        -1.00115
   C        1.15687         2.96155        -1.53449
   C        1.52487         2.77394        -2.85429
   C        1.92787         1.54405        -3.44231
   C        2.00268         1.70949        -4.79645
   C        1.71222         3.06387        -5.13209
   N        1.76572         3.46883        -6.47563
   O        2.26011         2.68714        -7.26833
   O        1.31463         4.55911        -6.80398
   C        1.44402         3.77813        -3.94386
   C        1.35378         5.13452        -3.63938
   C        1.26362         6.20806        -4.50722
   C        1.19586         7.52413        -4.08243
   S        1.19938         7.97482        -2.39940
   C        1.09541         9.67135        -2.76206
   C        1.07472         9.88823        -4.16799
   C        1.11755         8.68226        -4.91168
   C        1.08428         8.71251        -6.30734
   C        1.01498         9.92519        -6.96566
   C        0.97766         9.99219        -8.45602
   C        0.98304        11.11615        -6.21800
   C        1.01171        11.11189        -4.84528
   C        1.04873        10.63005        -1.75528
   C        0.96897        10.30477        -0.41638
   C        0.89238        11.20354         0.64876
   C        0.25246        10.95050         1.87164
   N       -0.27130         9.73182         2.34382
   O       -0.83031         9.75105         3.42399
   O       -0.12983         8.72668         1.66241
   C        0.07749        12.18246         2.57251
   C        0.64251        13.19264         1.85191
   C        1.27851        12.63517         0.69586
   C        2.25716        13.23525        -0.06461
   C        3.13320        12.60236        -1.03596
   C        3.86842        13.54733        -1.65689
   C        3.50659        14.82941        -1.09066
   N        4.08531        16.05938        -1.45292
   O        4.90242        16.05916        -2.35294
   O        3.72846        17.05258        -0.83735
   C        2.58569        14.65948        -0.08543
   C        2.08157        15.75567         0.72285
   C        2.48641        15.97496         1.97958
   C        2.13223        17.12667         2.76808
   S        3.34821        17.82511         3.78552
   C        2.31440        19.10596         4.25481
   C        1.08304        19.02175         3.66879
   C        0.97247        17.87760         2.82020
   N       -0.26666        17.53345         2.20919
   O       -0.43187        16.37292         1.88085
   O       -1.08706        18.41291         2.08027
   C        0.05029        19.95042         3.92591
   N       -0.74208        20.73325         4.18942
   H        5.71809        -0.46254        -0.93518
   H       -0.63461         4.14494         1.00352
   H       -0.35205         4.60867        -1.58627
   H        2.02408         0.61199        -2.92145
   H        2.22933         0.95753        -5.52921
   H        1.37608         5.37110        -2.58259
   H        1.22718         6.02472        -5.57106
   H        1.11094         7.79154        -6.86856
   H        0.97761         8.99829        -8.89389
   H        1.84244        10.53967        -8.82905
   H        0.08639        10.52316        -8.78732
   H        0.93375        12.05663        -6.74607
   H        0.98670        12.03955        -4.29555
   H        1.02171        11.66751        -2.05756
   H        0.82765         9.26029        -0.16104
   H       -0.43765        12.26149         3.51138
   H        0.64504        14.23051         2.11347
   H        3.21245        11.54348        -1.17850
   H        4.61748        13.42292        -2.41441
   H        1.43349        16.45849         0.21585
   H        3.21733        15.31562         2.42990
   H        2.65588        19.85815         4.93825
*
