# ORCA input file
# SCF done       -290.262124549214          0.000687037656
! CAM-B3LYP def2-SVP def2/J RIJCOSX Grid4 TightSCF
%maxcore 5000
%tddft
    Mode sTDDFT
    Ethresh 5.0
    maxcore 5000
end

%pal
  nprocs 6
  end
* xyz 0 1
   C       -7.58820        -2.50321        -7.46296
   O       -8.37656        -1.61422        -7.69700
   C       -7.72025        -3.92574        -7.85825
   C       -6.59219        -4.64333        -7.42312
   C       -6.48600        -6.00152        -7.67290
   C       -7.51952        -6.62281        -8.35911
   C       -8.64339        -5.92510        -8.79696
   C       -8.74461        -4.55552        -8.54289
   F       -9.81695        -3.89146        -8.95957
   F       -9.61639        -6.56129        -9.45334
   F       -7.43751        -7.93134        -8.60832
   C       -5.68781        -3.72184        -6.73217
   C       -4.48209        -4.07330        -6.18220
   C       -3.94687        -5.37933        -6.20847
   N       -3.45431        -6.41557        -6.19010
   C       -3.59209        -3.20617        -5.51239
   N       -2.80771        -2.57823        -4.95606
   C       -6.30676        -2.41185        -6.74485
   C       -5.78732        -1.27982        -6.17229
   C       -6.30289         0.02553        -6.08206
   C       -5.61077         1.02988        -5.42171
   C       -6.27712         2.26014        -5.38898
   C       -5.87049         3.45500        -4.74044
   C       -4.55796         3.56195        -4.14394
   C       -3.37378         3.09592        -4.64461
   C       -2.27832         3.37402        -3.80105
   C       -2.60626         4.03816        -2.65318
   S       -4.30736         4.35227        -2.61143
   C       -1.71479         4.48199        -1.55275
  Cl       -0.66933         2.90642        -4.19694
   C       -6.79497         4.48644        -4.72374
   C       -8.06281         4.41240        -5.36459
   C       -8.44913         3.23948        -6.04419
   C       -7.54025         2.18342        -6.03568
   S       -7.83156         0.60681        -6.70983
   C       -9.73539         3.09551        -6.69479
   C      -10.01524         2.42569        -7.85233
   C      -11.39049         2.42973        -8.16866
   C      -12.17729         3.07969        -7.26227
   S      -11.20189         3.71924        -5.98488
   C      -13.65005         3.26465        -7.27058
  Cl      -12.00903         1.67308        -9.58426
   C       -8.78153         5.62154        -5.23414
   C       -8.12926         6.57840        -4.50970
   S       -6.55607         6.04055        -3.96792
   C       -8.61588         7.86940        -4.15817
   C       -8.01453         8.80099        -3.35944
   C       -8.80243         9.95838        -3.16339
   C      -10.02677         9.88519        -3.84955
   S      -10.19011         8.39564        -4.72776
   C      -10.99718        10.88046        -3.81367
   O      -12.09321        10.59884        -4.56396
   C      -13.12325        11.52819        -4.79131
   C      -10.71625        11.99796        -3.00705
   C       -9.46267        12.07729        -2.31239
   C       -8.49219        11.09147        -2.37938
   O       -7.27213        11.03901        -1.79021
   C       -6.80381        12.09001        -0.97959
   S       -9.37493        13.55528        -1.36426
   C      -10.97522        14.02759        -1.86686
   C      -11.53184        13.12341        -2.72135
   C      -11.57226        15.21770        -1.36454
   C      -11.04768        16.10059        -0.46482
   C      -11.92016        17.16264        -0.13462
   C      -11.68096        18.24393         0.73911
   C      -10.47409        18.37018         1.52857
   C       -9.81790        19.51859         1.87210
   C       -8.72963        19.28781         2.74002
   C       -8.54388        17.97861         3.07813
   S       -9.73368        16.99319         2.30010
   C       -7.52233        17.38694         3.97753
  Cl       -7.73031        20.56431         3.31859
   C      -12.70112        19.18091         0.85103
   C      -13.93549        19.08974         0.15820
   C      -14.17009        18.01279        -0.72583
   C      -13.15025        17.07441        -0.83496
   S      -13.18699        15.66996        -1.86507
   C      -15.39015        17.88414        -1.49247
   C      -16.06887        16.74068        -1.80831
   C      -17.18739        16.97910        -2.63401
   C      -17.37276        18.28917        -2.97223
   S      -16.14616        19.26597        -2.24239
   C      -18.43611        18.89175        -3.81381
  Cl      -18.21916        15.71005        -3.17062
   C      -14.82615        20.11548         0.53615
   C      -14.33152        20.95834         1.49905
   S      -12.67445        20.55559         1.91525
   C      -15.00412        22.07570         2.05320
   C      -14.72631        22.73931         3.20794
   C      -15.21604        24.13078         3.40038
   O      -16.06114        24.69861         2.75689
   C      -14.39011        24.66382         4.51507
   C      -13.57898        23.63876         5.03884
   C      -13.89329        22.39401         4.33888
   C      -13.67772        21.13274         4.82621
   C      -12.90420        20.84866         5.96990
   N      -12.26385        20.56527         6.87886
   C      -14.29657        19.98340         4.28592
   N      -14.84244        19.04291         3.91964
   C      -12.69233        23.89047         6.07094
   C      -12.62975        25.18221         6.57344
   C      -13.43263        26.20782         6.07678
   C      -14.32466        25.94540         5.03404
   F      -15.08483        26.92791         4.56372
   F      -13.34742        27.43589         6.59328
   F      -11.77537        25.45548         7.56098
   H       -5.64331        -6.59483        -7.35967
   H       -4.82417        -1.38200        -5.68701
   H       -4.66400         0.84889        -4.94512
   H       -3.27203         2.61431        -5.59946
   H       -0.74429         4.00159        -1.65003
   H       -2.14520         4.22987        -0.58541
   H       -1.57392         5.56273        -1.58670
   H       -9.27538         1.96936        -8.48267
   H      -14.05103         2.95462        -8.23236
   H      -13.90724         4.30757        -7.09286
   H      -14.11634         2.66544        -6.48805
   H       -9.75332         5.79637        -5.65690
   H       -7.04742         8.66468        -2.91094
   H      -13.75213        11.06972        -5.55438
   H      -12.73696        12.47846        -5.16981
   H      -13.72425        11.69273        -3.89193
   H       -5.80370        11.78622        -0.67251
   H       -7.42572        12.22668        -0.09123
   H       -6.73955        13.03137        -1.53133
   H      -12.52140        13.28368        -3.10326
   H      -10.05845        15.98462        -0.06197
   H      -10.06424        20.49326         1.49384
   H       -6.71830        18.10088         4.13945
   H       -7.11365        16.47430         3.54806
   H       -7.96332        17.13756         4.94336
   H      -15.81538        15.76542        -1.43725
   H      -18.99894        18.10594        -4.31144
   H      -18.00491        19.55349        -4.56320
   H      -19.12190        19.47926        -3.20282
   H      -15.82957        20.20678         0.16311
   H      -15.79064        22.50615         1.44133
   H      -12.04870        23.13285         6.48715
*
