# ORCA input file
# SCF done       -248.543642705881          0.000607996824
! CAM-B3LYP def2-SVP def2/J RIJCOSX Grid4 TightSCF
%maxcore 5000
%tddft
    Mode sTDDFT
    Ethresh 5.0
    maxcore 5000
end

%pal
  nprocs 6
  end
* xyz 0 1
   C       -6.76146        -0.98459        -0.41190
   O       -7.42164         0.01446        -0.58733
   C       -7.25635        -2.30768         0.04860
   C       -6.21745        -3.25299        -0.01288
   C       -6.44004        -4.57017         0.34925
   C       -7.71221        -4.92307         0.77771
   C       -8.75073        -3.99765         0.85164
   C       -8.52001        -2.67158         0.47723
   F       -9.51242        -1.79012         0.55366
   F       -9.95867        -4.37437         1.27830
   F       -7.95011        -6.18765         1.13216
   C       -5.00415        -2.58040        -0.48126
   C       -3.76319        -3.15670        -0.58098
   C       -3.49378        -4.51445        -0.31049
   N       -3.21435        -5.60956        -0.11112
   C       -2.58437        -2.46841        -0.93875
   N       -1.58281        -1.97219        -1.20120
   C       -5.33377        -1.19739        -0.72364
   C       -4.52630        -0.27391        -1.34852
   C       -4.72152         1.10991        -1.41672
   S       -3.96692         1.98825        -2.73463
   C       -4.60347         3.51797        -2.21596
   C       -5.32832         3.34708        -1.04692
   C       -5.39075         2.00874        -0.57408
   C       -6.04229         1.93166         0.67627
   C       -6.50157         3.15019         1.08670
   C       -7.24946         3.48229         2.30671
   O       -7.62953         4.59447         2.57515
   O       -7.44902         2.40821         3.07708
   C       -8.18893         2.63698         4.26938
   S       -6.14303         4.46016        -0.00303
   C       -4.34402         4.71041        -2.93370
   C       -3.59424         4.84047        -4.07449
   C       -3.49719         6.16842        -4.53858
   C       -2.76497         6.65008        -5.64716
   C       -2.09002         5.76892        -6.57488
   C       -0.90130         5.97111        -7.21876
   C       -0.57487         4.92539        -8.10785
   C       -1.50431         3.92642        -8.17069
   S       -2.81427         4.26859        -7.09466
   C       -1.48820         2.69031        -8.99108
  Cl        0.87615         4.92696        -9.03236
   C       -2.73975         8.03048        -5.81289
   C       -3.42075         8.93668        -4.95861
   C       -4.18033         8.45313        -3.87151
   C       -4.19334         7.07320        -3.69544
   S       -4.98278         6.24231        -2.38269
   C       -4.90080         9.32059        -2.96415
   C       -6.10997         9.08485        -2.37210
   C       -6.49937        10.11403        -1.48882
   C       -5.59884        11.13473        -1.37952
   S       -4.23666        10.83295        -2.40257
   C       -5.67982        12.36288        -0.55110
  Cl       -7.98668        10.06643        -0.62562
   C       -3.26240        10.27519        -5.38043
   C       -2.49003        10.41153        -6.50110
   S       -1.92366         8.86935        -7.10365
   C       -2.11365        11.61737        -7.15025
   C       -1.39850        11.74784        -8.32741
   C       -1.18630        13.08381        -8.66132
   C       -1.73981        13.97571        -7.72440
   S       -2.53066        13.16682        -6.44254
   C       -1.46458        15.29742        -8.14210
   C       -0.73434        15.24675        -9.35051
   C       -0.53977        13.85264        -9.71456
   C        0.11607        13.36540       -10.80555
   C        0.24398        11.98026       -11.04622
   N        0.35073        10.85604       -11.24189
   C        0.71748        14.21344       -11.76062
   N        1.21076        14.89668       -12.53733
   C       -0.39719        16.50517        -9.82607
   C       -0.88218        17.52776        -9.01660
   S       -1.73697        16.88822        -7.60984
   C       -0.62386        18.89819        -9.20729
   C       -1.15062        19.99551        -8.58901
   C       -0.36857        21.26130        -8.59338
   O        0.58515        21.52093        -9.28163
   C       -0.99043        22.08883        -7.52742
   C       -2.13167        21.43534        -7.02607
   C       -2.33367        20.20240        -7.78975
   C       -3.53236        19.55271        -7.93033
   C       -4.68643        19.85305        -7.17881
   N       -5.64190        20.04345        -6.57289
   C       -3.76181        18.57568        -8.92177
   N       -3.99242        17.81314        -9.74781
   C       -2.87212        21.98736        -5.99623
   C       -2.45541        23.20483        -5.47642
   C       -1.33575        23.87372        -5.96780
   C       -0.59284        23.30837        -7.00762
   F        0.47529        23.94819        -7.46858
   F       -0.97231        25.04636        -5.44479
   F       -3.14334        23.75221        -4.47313
   H       -5.67589        -5.32861         0.31061
   H       -3.66346        -0.64232        -1.89014
   H       -6.16251         1.04428         1.26588
   H       -8.25119         1.67749         4.77548
   H       -9.18629         3.00999         4.02895
   H       -7.67992         3.37223         4.89597
   H       -3.11362         3.99934        -4.53922
   H       -0.25246         6.80894        -7.04470
   H       -0.63309         2.70814        -9.66183
   H       -2.40114         2.60727        -9.57918
   H       -1.41836         1.80799        -8.35493
   H       -6.73003         8.23311        -2.58015
   H       -6.57970        12.33224         0.05769
   H       -5.71054        13.25119        -1.18179
   H       -4.81134        12.44516         0.10122
   H       -3.70944        11.11820        -4.88655
   H       -1.06107        10.90023        -8.89639
   H        0.15703        16.69989       -10.72660
   H        0.19522        19.11539        -9.88759
   H       -3.74391        21.51039        -5.57933
*
