# ORCA input file
# SCF done       -217.149558463619          0.000568140460
! CAM-B3LYP def2-SVP def2/J RIJCOSX Grid4 TightSCF
%maxcore 5000
%tddft
    Mode sTDDFT
    Ethresh 5.0
    maxcore 5000
end

%pal
  nprocs 6
  end
* xyz 0 1
   C       -7.70137         1.31255         0.71905
   O       -7.59332         1.33965        -0.48525
   C       -8.52584         0.37204         1.51833
   C       -8.48212         0.73067         2.87748
   C       -9.19595         0.01146         3.82057
   C       -9.94693        -1.07108         3.38416
   C       -9.99558        -1.44479         2.04231
   C       -9.27767        -0.71003         1.09565
   F       -9.32326        -1.07031        -0.18261
   F      -10.72303        -2.49727         1.66366
   F      -10.64443        -1.77779         4.27429
   C       -7.60690         1.89401         3.02335
   C       -7.21649         2.45733         4.20960
   C       -7.66545         2.02980         5.47746
   N       -7.99967         1.72652         6.53224
   C       -6.28336         3.51117         4.32345
   N       -5.51453         4.34746         4.48660
   C       -7.15039         2.26964         1.70457
   C       -6.51578         3.44159         1.37582
   C       -5.91061         3.75340         0.14761
   S       -5.80949         5.43334        -0.33288
   C       -5.03502         5.06169        -1.83663
   C       -4.81758         3.69426        -1.92529
   C       -5.29386         2.94572        -0.81582
   C       -4.96184         1.57514        -0.92622
   C       -4.31870         1.29931        -2.09615
   C       -3.82326         0.01617        -2.61079
   O       -3.24684        -0.09333        -3.66569
   O       -4.08102        -0.99286        -1.77719
   C       -3.65149        -2.27775        -2.21047
   S       -4.05486         2.69010        -3.11121
   C       -4.70604         6.05884        -2.79352
   C       -4.00453         5.85646        -3.95316
   C       -3.84791         7.02821        -4.72289
   C       -3.17816         7.22437        -5.94663
   C       -3.19714         8.53044        -6.46422
   C       -3.83211         9.55292        -5.70880
   N       -4.43280         9.38239        -4.55157
   C       -4.44502         8.15271        -4.08685
   S       -5.19612         7.73109        -2.58397
   S       -3.76839        11.10890        -6.48339
   C       -2.94465        10.38668        -7.83742
   C       -2.71502         9.05664        -7.70099
   F       -2.14168         8.31568        -8.65844
   F       -2.61623        11.13574        -8.87914
   C       -2.47696         6.14580        -6.60885
   C       -1.21140         6.19501        -7.14826
   C       -0.82090         4.96163        -7.67676
   C       -1.80940         3.97315        -7.54059
   S       -3.20654         4.55675        -6.76031
   C       -1.32600         2.76192        -8.10207
   C       -0.02637         2.99720        -8.59631
   C        0.32801         4.38678        -8.35355
   C        1.48452         5.01009        -8.71828
   C        1.73670         6.36564        -8.41731
   N        1.94675         7.46032        -8.15052
   C        2.49914         4.31631        -9.41174
   N        3.30975         3.73045        -9.97230
   C        0.53615         1.87654        -9.18774
   C       -0.31914         0.78134        -9.15479
   S       -1.83366         1.15940        -8.34236
   C       -0.09059        -0.52930        -9.62146
   C        0.85305        -0.97219       -10.50143
   C        1.19113        -2.42361       -10.50402
   O        0.57468        -3.30668        -9.96467
   C        2.46206        -2.51391       -11.26389
   C        2.78816        -1.25046       -11.79094
   C        1.71716        -0.30990       -11.45300
   C        1.46456         0.85386       -12.12955
   C        2.29118         1.37148       -13.15064
   N        2.92448         1.83379       -13.98722
   C        0.29698         1.62406       -11.95458
   N       -0.65027         2.26499       -11.86143
   C        3.95656        -1.05948       -12.50719
   C        4.78903        -2.15361       -12.69649
   C        4.47521        -3.41669       -12.19628
   C        3.29678        -3.59923       -11.46855
   F        3.00647        -4.80203       -10.98670
   F        5.29919        -4.44477       -12.40648
   F        5.92594        -1.99567       -13.37424
   H       -9.19796         0.25642         4.86979
   H       -6.51573         4.24255         2.10542
   H       -5.16413         0.82380        -0.18815
   H       -3.92151        -2.96970        -1.41751
   H       -2.57219        -2.28074        -2.37494
   H       -4.15081        -2.54813        -3.14271
   H       -3.60661         4.89778        -4.22536
   H       -0.59258         7.07323        -7.12895
   H        1.53458         1.82874        -9.58216
   H       -0.69467        -1.31205        -9.17247
   H        4.24971        -0.10334       -12.90871
*
