# ORCA input file
# SCF done       -218.321174851952          0.000810119935
! CAM-B3LYP def2-SVP def2/J RIJCOSX Grid4 TightSCF
%maxcore 5000
%tddft
    Mode sTDDFT
    Ethresh 5.0
    maxcore 5000
end

%pal
  nprocs 6
  end
* xyz 0 1
   C       -2.28942         2.99066         3.16851
   C       -1.25393         2.20002         2.73219
   C        0.07258         2.30519         3.19764
   N        1.17117         2.33489         3.53117
   C       -1.35014         1.17779         1.76726
   N       -1.34575         0.33250         0.98785
   C       -2.17764         4.04923         4.16831
   C       -3.45316         4.64321         4.34543
   C       -3.67625         5.67325         5.22572
   C       -2.58871         6.14264         5.96962
   C       -1.31958         5.54525         5.78651
   C       -1.09398         4.50201         4.89490
   S       -0.12492         6.28260         6.80690
   C       -1.31027         7.36156         7.45641
   C       -2.54536         7.18441         6.93847
   C       -4.41896         3.97601         3.45801
   O       -5.60677         4.23918         3.34959
   C       -3.67015         2.94475         2.73966
   C       -4.20168         2.07474         1.81569
   C       -5.50731         1.94887         1.34562
   S       -6.90719         2.89445         1.79605
   C       -7.96343         2.01114         0.73426
   C       -7.25679         1.02246         0.06691
   C       -5.87956         0.98287         0.38914
   C       -5.18165        -0.00440        -0.33718
   C       -6.00564        -0.68768        -1.18635
   C       -5.67333        -1.77202        -2.11329
   O       -6.48119        -2.32914        -2.81654
   O       -4.36748        -2.06421        -2.08771
   C       -3.94886        -3.10088        -2.96320
   S       -7.66682        -0.16602        -1.13273
   C       -9.35684         2.34886         0.62096
   C      -10.25741         1.46659         0.00379
   C      -11.57395         1.82963        -0.12160
   C      -12.02748         3.07419         0.35128
   C      -11.14798         3.94398         0.98288
   C       -9.82611         3.57430         1.11725
   C      -13.43731         3.19376         0.04506
   C      -13.85391         2.01562        -0.59901
   C      -12.70402         1.04954        -0.74760
   C      -12.41787         0.73648        -2.22815
   C      -12.14173         1.98672        -3.05432
   C      -12.96979        -0.26258         0.01413
   C      -13.26134        -0.04003         1.49319
   C      -15.15462         1.86705        -1.01134
   C      -16.06687         2.90984        -0.80718
   C      -15.64305         4.07821        -0.16303
   C      -14.33929         4.22445         0.26842
   C      -17.42853         2.77247        -1.27743
   C      -18.32538         3.75673        -1.57373
   C      -19.56548         3.26760        -2.05081
   C      -19.59455         1.86364        -2.09686
   S      -18.09185         1.17573        -1.57088
   C      -20.68226         1.12709        -2.55142
   O      -20.50587        -0.21665        -2.54315
   C      -21.25040        -1.06384        -3.38938
   C      -21.81736         1.86375        -2.93942
   C      -21.77239         3.29688        -2.93175
   C      -20.67151         4.01845        -2.50661
   O      -20.49728         5.36444        -2.45763
   C      -21.37602         6.22688        -3.14052
   S      -23.29497         3.95934        -3.49901
   C      -23.96750         2.36048        -3.72900
   C      -23.08347         1.38767        -3.35275
   C      -25.29082         2.15256        -4.20141
   C      -26.02521         2.96364        -5.00614
   C      -25.64259         4.10150        -5.81491
   C      -24.42550         4.27523        -6.42359
   C      -24.09943         5.38166        -7.23071
   N      -23.77339         6.27461        -7.87470
   C      -23.40357         3.30430        -6.38460
   N      -22.58537         2.49950        -6.43147
   C      -26.85287         4.86227        -6.09228
   C      -27.97378         4.09381        -5.68091
   C      -27.50710         2.83829        -5.06140
   O      -28.17390         1.92015        -4.64119
   C      -29.26531         4.52489        -5.86527
   C      -29.45930         5.77028        -6.47132
   C      -28.33349         6.53287        -6.86523
   C      -27.02592         6.09572        -6.68823
   S      -28.81390         8.03694        -7.58505
   C      -30.48265         7.63843        -7.36328
   C      -30.67915         6.43831        -6.77564
   H       -4.65959         6.10312         5.33737
   H       -0.10754         4.08149         4.79387
   H       -1.00349         8.07331         8.19799
   H       -3.40591         7.76290         7.22216
   H       -3.52051         1.36067         1.37194
   H       -4.12995        -0.21173        -0.25656
   H       -2.87693        -3.20300        -2.81742
   H       -4.17403        -2.83649        -3.99860
   H       -4.46213        -4.03351        -2.71975
   H       -9.91457         0.50956        -0.35634
   H      -11.48872         4.89696         1.35816
   H       -9.12588         4.24201         1.59714
   H      -13.27823         0.20958        -2.64511
   H      -11.55589         0.06889        -2.28334
   H      -12.99632         2.65954        -3.03295
   H      -11.94445         1.71366        -4.08805
   H      -11.27522         2.51906        -2.66841
   H      -12.09642        -0.90913        -0.09114
   H      -13.81942        -0.76722        -0.44981
   H      -12.41842         0.44108         1.98445
   H      -13.44750        -0.99237         1.98389
   H      -14.13886         0.58979         1.62147
   H      -15.48408         0.96590        -1.50740
   H      -16.35440         4.87053         0.01111
   H      -14.02942         5.12948         0.76893
   H      -18.12156         4.80784        -1.49090
   H      -20.62744        -1.94654        -3.53781
   H      -21.45145        -0.59524        -4.35525
   H      -22.18678        -1.37393        -2.91557
   H      -22.36435         6.25765        -2.67338
   H      -21.47583         5.95060        -4.19349
   H      -20.91941         7.21362        -3.07178
   H      -23.35870         0.35191        -3.40676
   H      -25.79989         1.27062        -3.82531
   H      -30.10135         3.91788        -5.55419
   H      -26.19606         6.70864        -7.00010
   H      -31.22457         8.33977        -7.69232
   H      -31.64768         6.02558        -6.55849
*
