# ORCA input file
# SCF done       -238.322717795681          0.000531509592
! CAM-B3LYP def2-SVP def2/J RIJCOSX Grid4 TightSCF
%maxcore 5000
%tddft
    Mode sTDDFT
    Ethresh 5.0
    maxcore 5000
end

%pal
  nprocs 6
  end
* xyz 0 1
   C       -2.26101         4.59576        -2.80227
   C       -1.10067         3.98947        -2.39020
   C        0.17296         4.26983        -2.92709
   N        1.23710         4.44958        -3.31921
   C       -1.00017         3.00799        -1.38302
   N       -0.83660         2.20652        -0.57609
   C       -2.35646         5.61500        -3.84316
   C       -3.71496         5.99921        -3.98099
   C       -4.12984         6.94626        -4.88548
   C       -3.15928         7.54437        -5.69540
   C       -1.80641         7.15480        -5.55208
   C       -1.38648         6.19657        -4.63588
   S       -0.78271         8.02099        -6.65288
   C       -2.14531         8.87972        -7.28264
   C       -3.31624         8.53934        -6.70097
   C       -4.52822         5.22956        -3.02850
   O       -5.73799         5.30849        -2.87528
   C       -3.60108         4.35712        -2.30642
   C       -3.95828         3.45807        -1.32991
   C       -5.21705         3.14918        -0.81206
   S       -6.75967         3.84261        -1.26460
   C       -7.63250         2.82926        -0.14708
   C       -6.76267         2.00039         0.54225
   C       -5.40532         2.17022         0.18460
   C       -4.55402         1.31169         0.91328
   C       -5.25306         0.52814         1.78816
   C       -4.69616        -0.47121         2.70450
   O       -3.52642        -0.74012         2.80298
   O       -5.66884        -1.05045         3.42404
   C       -5.25324        -2.03922         4.35302
   S       -6.97708         0.79392         1.76614
   C       -9.04306         2.89370        -0.03700
   C       -9.88551         3.76109        -0.68009
   C      -11.24959         3.55712        -0.37773
   C      -12.37040         4.25147        -0.88363
   C      -12.25609         5.31516        -1.85934
   C      -12.99371         6.46424        -1.93190
   C      -12.65091         7.26351        -3.04180
   C      -11.67203         6.73723        -3.83571
   S      -11.13981         5.22343        -3.19558
   C      -11.06764         7.31616        -5.06188
  Cl      -13.41050         8.77289        -3.36680
   C      -13.61346         3.84534        -0.40981
   C      -13.79239         2.78179         0.51137
   C      -12.67475         2.08187         1.01066
   C      -11.42945         2.50501         0.55796
   S       -9.90877         1.78479         1.00534
   C      -12.79053         0.95692         1.91571
   C      -11.95912         0.62470         2.94740
   C      -12.32403        -0.58408         3.57792
   C      -13.41834        -1.19611         3.03965
   S      -14.03140        -0.25456         1.72327
   C      -14.07103        -2.46598         3.44509
  Cl      -11.44389        -1.22176         4.91231
   C      -15.15711         2.56732         0.80846
   C      -16.00530         3.39471         0.12741
   S      -15.14489         4.51429        -0.90701
   C      -17.42495         3.41095         0.18818
   C      -18.29259         4.22956        -0.50874
   C      -19.62666         3.94639        -0.21301
   C      -19.77008         2.90436         0.71892
   S      -18.26675         2.27548         1.22936
   C      -21.15106         2.68740         0.95181
   C      -21.88232         3.59405         0.15879
   C      -20.94966         4.41956        -0.58984
   C      -21.26183         5.43676        -1.44257
   C      -20.27427         6.18425        -2.11810
   N      -19.47542         6.78836        -2.67581
   C      -22.60245         5.79386        -1.70071
   N      -23.69662         6.06807        -1.90665
   C      -23.25561         3.47728         0.32999
   C      -23.58869         2.49406         1.25055
   S      -22.15847         1.68459         1.88443
   C      -24.86230         2.05502         1.67197
   C      -26.07052         2.67188         1.55767
   C      -26.48018         4.02390         1.24042
   C      -25.78869         5.17730         1.50978
   C      -26.30939         6.47221         1.30424
   N      -26.68640         7.54682         1.16367
   C      -24.52091         5.20863         2.12061
   N      -23.49911         5.27989         2.64014
   C      -27.88260         3.96674         0.84185
   C      -28.38974         2.67523         1.14022
   C      -27.30373         1.84036         1.67950
   O      -27.36555         0.70513         2.09342
   C      -29.70059         2.32950         0.91488
   C      -30.54454         3.29588         0.35926
   C      -30.02298         4.57519         0.04765
   C      -28.69940         4.92961         0.28296
   S      -31.24121         5.59938        -0.64192
   C      -32.41542         4.33689        -0.50470
   C      -31.92551         3.19663         0.02889
   H       -5.17136         7.21641        -4.96561
   H       -0.34378         5.93586        -4.56675
   H       -1.98216         9.59809        -8.06237
   H       -4.26610         8.96875        -6.96358
   H       -3.16184         2.87885        -0.88134
   H       -3.48428         1.25600         0.81896
   H       -6.15730        -2.39767         4.83800
   H       -4.56849        -1.60644         5.08525
   H       -4.74380        -2.85461         3.83541
   H       -9.51527         4.52159        -1.34236
   H      -13.72734         6.75983        -1.20542
   H      -11.80702         7.91282        -5.59237
   H      -10.69932         6.52932        -5.71564
   H      -10.22982         7.96516        -4.80232
   H      -11.13602         1.22865         3.28024
   H      -13.51078        -2.92077         4.25802
   H      -14.11098        -3.16192         2.60799
   H      -15.09247        -2.28404         3.77838
   H      -15.51216         1.82981         1.50468
   H      -17.95260         4.98538        -1.19385
   H      -23.98986         4.04130        -0.21560
   H      -24.90583         1.05309         2.08937
   H      -30.06296         1.34318         1.15971
   H      -28.34242         5.91203         0.02124
   H      -33.41650         4.52988        -0.83827
   H      -32.50804         2.30757         0.18949
*
