# ORCA input file
# SCF done       -210.107948048717          0.000409759269
! CAM-B3LYP def2-SVP def2/J RIJCOSX Grid4 TightSCF
%maxcore 5000
%tddft
    Mode sTDDFT
    Ethresh 5.0
    maxcore 5000
end

%pal
  nprocs 6
  end
* xyz 0 1
   C       -8.64360         6.62192         8.46632
   C       -7.64174         6.31514         9.35941
   C       -7.85723         6.03876        10.72434
   N       -7.95865         5.80315        11.84400
   C       -6.26859         6.23689         9.06101
   N       -5.13152         6.15788         8.90000
   C      -10.06430         6.71612         8.79114
   C      -10.77573         7.06772         7.61541
   C      -12.13826         7.23350         7.59454
   C      -12.83697         7.04325         8.79169
   C      -12.12019         6.69296         9.95954
   C      -10.73948         6.52531         9.98045
   S      -13.18457         6.50884        11.31812
   C      -14.55133         6.89432        10.33091
   C      -14.23373         7.15024         9.04298
   C       -9.82190         7.20596         6.50205
   O      -10.08730         7.50607         5.34887
   C       -8.50212         6.91260         7.05943
   C       -7.31498         6.90349         6.35974
   C       -7.04401         7.15531         5.01977
   S       -8.19719         7.55898         3.78205
   C       -6.97645         7.59965         2.55128
   C       -5.68914         7.37108         3.08079
   C       -5.72981         7.10578         4.47619
   C       -4.54393         6.84243         5.16910
   C       -3.33656         6.87390         4.51168
   S       -1.80044         6.53518         5.28210
   C       -2.15464         6.52625         7.07670
   C       -2.42268         7.91588         7.61958
   C       -3.28797         7.19731         3.12394
   S       -1.68513         7.27266         2.41255
   C       -1.99785         7.61290         0.63697
   C       -0.66754         7.62814        -0.09194
   C       -4.44690         7.44296         2.42958
   C       -7.40819         7.80654         1.22399
   C       -6.74898         7.46662         0.08246
   C       -7.29634         7.69810        -1.19643
   N       -8.40438         8.33446        -1.45260
   C       -8.65396         8.36243        -2.75468
   C       -7.71709         7.72412        -3.59479
   S       -6.44677         7.06827        -2.64614
   N       -7.97186         7.73621        -4.89715
   C       -9.09028         8.36840        -5.14923
   S       -9.92355         9.02197        -3.70492
   C       -9.64535         8.52803        -6.42919
   S      -11.09855         9.42318        -6.67748
   C      -11.13761         9.07352        -8.38132
   C      -10.00372         8.32426        -8.75482
   C       -9.16825         7.99938        -7.64543
   C       -8.02324         7.21033        -7.81268
   C       -7.67948         6.76426        -9.06646
   S       -6.34088         5.67426        -9.36748
   C       -5.78556         5.19076        -7.69434
   C       -4.71709         4.12229        -7.82898
   C       -8.44298         7.18270       -10.19049
   S       -8.00810         6.68091       -11.83396
   C       -6.35843         7.47048       -12.06081
   C       -5.37094         6.49601       -12.66812
   C       -9.58008         7.93180       -10.03567
   C      -12.27367         9.49438        -9.09633
   C      -12.68743         9.03717       -10.31395
   C      -13.88525         9.46907       -10.91147
   C      -14.49420         8.93037       -12.01060
   C      -14.25234         7.70674       -12.73939
   C      -13.73694         6.53573       -12.24046
   C      -13.59070         5.35791       -13.00185
   N      -13.43898         4.37539       -13.57616
   C      -13.40630         6.31286       -10.88781
   N      -13.16844         6.04837        -9.79576
   C      -14.87386         7.85720       -14.05280
   C      -15.66476         9.03541       -14.04920
   C      -15.51665         9.71545       -12.74874
   O      -16.06871        10.72456       -12.36870
   C      -16.40941         9.42590       -15.13547
   C      -16.36332         8.62588       -16.28163
   C      -15.55836         7.46211       -16.28018
   C      -14.81095         7.06045       -15.17868
   S      -15.64309         6.63751       -17.80486
   C      -16.73723         7.82980       -18.41660
   C      -17.02821         8.80426       -17.52780
   H      -12.64979         7.50123         6.68303
   H      -10.24134         6.25730        10.89713
   H      -15.52359         6.90540        10.78393
   H      -14.95173         7.40696         8.28520
   H       -6.43825         6.65504         6.93970
   H       -4.57897         6.61328         6.22021
   H       -1.24405         6.11072         7.50784
   H       -2.97592         5.84067         7.27677
   H       -1.55148         8.55247         7.48449
   H       -2.65202         7.84747         8.68031
   H       -3.26873         8.37840         7.11610
   H       -2.49478         8.58003         0.55839
   H       -2.64257         6.82242         0.25265
   H       -0.01900         8.39894         0.31702
   H       -0.82813         7.82970        -1.14880
   H       -0.16759         6.66810         0.00988
   H       -4.41451         7.73252         1.39519
   H       -8.40240         8.21892         1.10912
   H       -5.80511         6.94545         0.10384
   H       -7.45143         6.96701        -6.93485
   H       -6.65395         4.81361        -7.15425
   H       -5.39086         6.07717        -7.19745
   H       -5.11120         3.25151        -8.34790
   H       -4.37734         3.81655        -6.84194
   H       -3.86524         4.50133        -8.38932
   H       -6.02984         7.81970       -11.08491
   H       -6.52374         8.32551       -12.71662
   H       -5.23038         5.64284       -12.00963
   H       -4.41220         6.98829       -12.81782
   H       -5.73429         6.13781       -13.62812
   H      -10.11691         8.23239       -10.91871
   H      -12.92777        10.17655        -8.56582
   H      -12.10427         8.29393       -10.83121
   H      -14.35614        10.36121       -10.51199
   H      -17.00917        10.32220       -15.10185
   H      -14.20734         6.16925       -15.22661
   H      -17.09940         7.72488       -19.42081
   H      -17.68824         9.62795       -17.73158
*
