# ORCA input file
# SCF done       -198.602368720489          0.000446508808
! CAM-B3LYP def2-SVP def2/J RIJCOSX Grid4 TightSCF
%maxcore 5000
%tddft
    Mode sTDDFT
    Ethresh 5.0
    maxcore 5000
end

%pal
  nprocs 6
  end
* xyz 0 1
   C        7.45911        10.09657         4.48594
   C        6.43961        10.88689         4.93884
   F        6.67934        11.78239         5.91470
   C        5.13890        10.80328         4.42463
   C        4.87650         9.89847         3.43355
   C        5.89012         9.05858         2.92913
   C        7.20707         9.16134         3.46378
   C        8.24430         8.33823         2.96530
   C        7.96939         7.44239         1.96876
   C        6.64689         7.33076         1.45098
   C        5.62936         8.11685         1.90768
   C        6.61825         6.27174         0.42301
   O        5.68211         5.92569        -0.26375
   C        7.97707         5.67081         0.43833
   C        8.82995         6.51140         1.24077
   C       10.19679         6.61666         1.15208
   C       10.97768         5.90414         0.22262
   N       11.65419         5.37937        -0.54275
   C       10.96861         7.51069         1.91881
   N       11.65041         8.19623         2.53892
   C        8.18124         4.47831        -0.20109
   C        9.19934         3.52526        -0.01863
   N        9.38347         2.50352        -0.93341
   C       10.40311         1.72059        -0.50894
   C       11.19321         0.62577        -0.83691
   C       12.09953         0.47117         0.22285
   N       11.85072         1.43094         1.18369
   C       10.83704         2.22223         0.75186
   C       10.09087         3.34665         1.05628
   C       13.17124        -0.43675         0.39084
   C       13.58602        -1.35531        -0.51963
   C       14.72464        -2.19176        -0.36185
   C       15.16657        -3.01105        -1.38329
   C       16.31937        -3.78781        -1.34778
   C       17.22306        -3.73457        -0.19302
   C       16.96575        -3.04888         0.94237
   S       15.56144        -2.10007         1.18082
   C       18.35848        -4.51386        -0.55048
   C       18.19032        -5.01863        -1.83785
   C       19.29115        -5.80066        -2.25088
   C       20.24674        -5.86250        -1.28668
   S       19.85225        -4.98610         0.15339
   C       16.90475        -4.60846        -2.34564
   C       16.42401        -5.02947        -3.59843
   C       15.12933        -5.02972        -4.03787
   C       14.73332        -5.51612        -5.29702
   C       15.59035        -5.90824        -6.42594
   N       14.94878        -6.37447        -7.45411
   C       13.62497        -6.34270        -7.10619
   C       13.45539        -5.77562        -5.77004
   C       12.07218        -5.78771        -5.40018
   S       11.38103        -5.23904        -4.01011
   C       11.41128        -6.41789        -6.52390
   C       12.38813        -6.73011        -7.56773
   N       11.79002        -7.37169        -8.61132
   C       10.53160        -7.45539        -8.29842
   C       10.19854        -6.88521        -6.98492
   C        8.94609        -6.95441        -6.32488
   C        7.72335        -7.10316        -6.90032
   C        6.57830        -7.65435        -6.12266
   O        6.49901        -7.76318        -4.92171
   C        5.60761        -8.10045        -7.14318
   C        4.45487        -8.81275        -6.97774
   C        3.69680        -9.17177        -8.11478
   C        4.15039        -8.78312        -9.40937
   C        3.39544        -9.15549       -10.53861
   C        2.24735        -9.87817       -10.36978
   C        1.78394       -10.26869        -9.10589
   C        2.50413        -9.91513        -7.99903
   F        1.52564       -10.23627       -11.44704
   C        5.34312        -8.03635        -9.55114
   C        6.05835        -7.69865        -8.43438
   C        7.29778        -6.94515        -8.27553
   C        7.83124        -6.06872        -9.18264
   C        8.88746        -5.18471        -8.87278
   N        9.69650        -4.40414        -8.64285
   C        7.32246        -5.88798       -10.48462
   N        6.94253        -5.72304       -11.55496
   H        8.44992        10.19120         4.90219
   H        4.37484        11.45320         4.82070
   H        3.88198         9.81574         3.02164
   H        9.23037         8.43359         3.39173
   H        4.63614         8.02383         1.49467
   H        7.39090         4.20268        -0.89411
   H        8.90837         2.44579        -1.81830
   H       11.14194         0.01303        -1.71320
   H       12.39791         1.55813         2.01773
   H       10.13404         3.94931         1.94108
   H       13.71890        -0.34333         1.32113
   H       13.05491        -1.45395        -1.45500
   H       14.58055        -2.99417        -2.29059
   H       17.63838        -3.04943         1.78538
   H       19.38050        -6.29142        -3.20292
   H       21.18484        -6.38079        -1.32467
   H       17.17494        -5.46587        -4.24493
   H       14.32785        -4.72477        -3.38072
   H       16.66219        -5.81746        -6.45983
   H        9.84280        -7.96674        -8.94800
   H        8.97308        -6.98335        -5.23958
   H        4.12680        -9.10402        -5.99114
   H        3.72082        -8.86991       -11.52674
   H        0.87148       -10.83914        -9.03461
   H        2.16752       -10.20488        -7.01499
   H        5.67043        -7.76193       -10.54175
*
