# ORCA input file
# SCF done       -289.140176171181          0.000696105818
! CAM-B3LYP def2-SVP def2/J RIJCOSX Grid4 TightSCF
%maxcore 5000
%tddft
    Mode sTDDFT
    Ethresh 5.0
    maxcore 5000
end

%pal
  nprocs 6
  end
* xyz 0 1
   C        4.01324        -8.47282         6.64771
   C        3.15819        -7.46423         6.38524
   C        3.81701        -6.27456         5.95616
   C        3.23907        -5.04663         5.58706
   C        1.79963        -4.88146         5.52216
   C        0.88187        -5.74425         4.99696
   C       -0.43972        -5.25567         5.09200
   C       -0.54852        -4.03305         5.68715
   S        1.01821        -3.45319         6.14208
   C       -1.76862        -3.23072         5.95397
  Cl       -1.79082        -6.14444         4.49664
   C        4.11779        -4.01852         5.26706
   C        5.52565        -4.17706         5.23849
   C        6.10321        -5.41830         5.56919
   C        5.22246        -6.43204         5.94152
   S        5.67217        -8.05158         6.40471
   C        7.53179        -5.65305         5.51833
   C        8.29109        -6.39406         6.37784
   C        9.64794        -6.45800         5.99367
   C        9.94348        -5.78741         4.84303
   S        8.51432        -5.04138         4.21256
   C       11.24978        -5.65234         4.15095
  Cl       10.82150        -7.31787         6.91496
   C        6.18066        -2.97399         4.87785
   C        5.32637        -1.94129         4.62057
   S        3.64804        -2.40399         4.81305
   C        5.65379        -0.60826         4.24796
   C        4.79014         0.45782         4.10562
   C        5.45969         1.62758         3.73827
   C        6.84317         1.44112         3.59173
   S        7.32149        -0.16633         3.91532
   C        7.42966         2.67903         3.21894
   C        6.41723         3.64811         3.13974
   C        5.14456         3.01934         3.46188
   C        3.91731         3.61305         3.49711
   C        2.74387         2.90005         3.82189
   N        1.78474         2.32942         4.08445
   C        3.73946         4.98278         3.21023
   N        3.59424         6.09646         2.97916
   C        6.89653         4.90789         2.77920
   C        8.26360         4.90191         2.57585
   S        8.96986         3.31317         2.84042
   C        9.08712         5.99155         2.19386
   C       10.43590         5.96677         1.89317
   C       10.91615         7.22980         1.54514
   C        9.92585         8.22356         1.59066
   S        8.40176         7.60489         2.05128
   C       10.51058         9.46249         1.22054
   C       11.86756         9.24925         0.93102
   C       12.17000         7.84100         1.12890
   C       13.37301         7.22070         0.96264
   C       13.54088         5.83921         1.19385
   N       13.67669         4.71645         1.38283
   C       14.52945         7.91691         0.55161
   N       15.47335         8.47662         0.22003
   C       12.53068        10.41747         0.54731
   C       11.69192        11.51282         0.55245
   S       10.05364        11.09740         1.03505
   C       12.01671        12.85790         0.22596
   C       11.21558        13.95863         0.33001
   C       11.84436        15.16053        -0.07258
   C       11.31482        16.46671        -0.05548
   C       10.00151        16.77336         0.47304
   C        9.11001        17.70235         0.01785
   C        7.95539        17.79481         0.82438
   C        7.94717        16.95768         1.90133
   S        9.39872        16.01485         1.92432
   C        6.90876        16.79484         2.94958
  Cl        6.67324        18.88681         0.46530
   C       12.14119        17.47456        -0.54328
   C       13.46064        17.24866        -1.00821
   C       13.99994        15.94682        -0.99871
   C       13.16343        14.93470        -0.53867
   S       13.60164        13.25287        -0.40585
   C       15.35511        15.65824        -1.42294
   C       15.79886        14.57107        -2.12046
   C       17.19570        14.58363        -2.32327
   C       17.83645        15.65853        -1.77948
   S       16.69117        16.69729        -1.00229
   C       19.28316        15.99005        -1.79902
  Cl       18.00714        13.33586        -3.18840
   C       14.07766        18.44794        -1.44164
   C       13.29460        19.55302        -1.29164
   S       11.72754        19.16536        -0.61546
   C       13.61252        20.90349        -1.61676
   C       12.81251        21.99728        -1.47832
   C       13.42669        23.20912        -1.88184
   C       12.88923        24.50954        -1.84631
   C       11.57122        24.79457        -1.31645
   C       10.65771        25.69708        -1.78113
   C        9.49038        25.75112        -0.98930
   C        9.49625        24.91276         0.08693
   S       10.97701        24.01824         0.12847
   C        8.44854        24.70937         1.11882
  Cl        8.17535        26.79729        -1.36577
   C       13.70525        25.52925        -2.33184
   C       15.01932        25.31575        -2.81118
   C       15.56288        24.01845        -2.82881
   C       14.73737        22.99411        -2.37382
   S       15.18069        21.31067        -2.27968
   C       16.91568        23.73680        -3.26887
   C       17.35188        22.66517        -3.99320
   C       18.74973        22.67147        -4.19134
   C       19.39828        23.72679        -3.62086
   S       18.25818        24.75451        -2.81962
   C       20.84824        24.04611        -3.62738
  Cl       19.55391        21.43624        -5.08248
   C       15.62520        26.53477        -3.23640
   C       14.82872        27.60807        -3.06150
   S       13.28689        27.22036        -2.38495
   H        3.78111        -9.46303         6.98780
   H        2.09378        -7.53878         6.50829
   H        1.13295        -6.67330         4.51943
   H       -2.63824        -3.73686         5.54226
   H       -1.68313        -2.24381         5.50116
   H       -1.91313        -3.09605         7.02566
   H        7.91608        -6.85200         7.27382
   H       12.02634        -6.13432         4.73954
   H       11.50617        -4.60248         4.01454
   H       11.21285        -6.11884         3.16664
   H        7.24840        -2.86332         4.82569
   H        3.73120         0.37107         4.27038
   H        6.29462         5.79119         2.66210
   H       11.02263         5.06626         1.92516
   H       13.56966        10.48490         0.27887
   H       10.20203        13.89903         0.68226
   H        9.24292        18.27949        -0.87782
   H        7.31696        17.02466         3.93343
   H        6.54116        15.76943         2.97077
   H        6.07699        17.46487         2.74709
   H       15.16025        13.80253        -2.51401
   H       19.82782        15.21565        -2.33322
   H       19.67450        16.06346        -0.78479
   H       19.45094        16.94678        -2.29288
   H       15.06611        18.50228        -1.85917
   H       11.80810        21.92469        -1.10377
   H       10.78468        26.28060        -2.67362
   H        7.60437        25.36391         0.91700
   H        8.83902        24.92986         2.11184
   H        8.10396        23.67557         1.11656
   H       16.70697        21.91219        -4.40589
   H       21.24153        24.06799        -2.61141
   H       21.02464        25.02326        -4.07586
   H       21.38565        23.29276        -4.19793
   H       16.61020        26.59511        -3.65970
   H       15.04156        28.63190        -3.29886
*
