# ORCA input file
# SCF done       -188.661514542865          0.000934020437
! CAM-B3LYP def2-SVP def2/J RIJCOSX Grid4 TightSCF
%maxcore 5000
%tddft
    Mode sTDDFT
    Ethresh 5.0
    maxcore 5000
end

%pal
  nprocs 6
  end
* xyz 0 1
   C       -2.90524        -9.83051         6.96065
   O       -2.76559        -8.77751         6.35798
   C       -2.97939        -9.95285         8.43004
   C       -3.22424       -11.28915         8.78333
   C       -3.33831       -11.62829        10.12326
   C       -3.20627       -10.63134        11.08148
   C       -2.96194        -9.31991        10.70365
   C       -2.84439        -8.95490         9.37068
  Br       -2.79843        -7.97571        12.02952
   C       -3.29524       -12.08128         7.55517
   C       -3.43533       -13.44628         7.51511
   C       -3.60976       -14.25214         8.65953
   N       -3.76419       -14.96391         9.54716
   C       -3.40156       -14.25378         6.35866
   N       -3.36389       -14.99213         5.47890
   C       -3.11414       -11.18174         6.43149
   C       -3.27884       -11.57114         5.11612
   C       -3.00246       -10.91987         3.90284
   C       -2.24862        -9.76877         3.72439
   C       -1.92806        -9.21002         2.50259
   C       -2.28579        -9.87051         1.23774
   C       -3.03971       -10.99027         1.15608
   S       -3.66842       -11.80996         2.51875
   C       -1.65652        -9.10947         0.21890
   C       -0.95355        -8.04402         0.79296
   C       -0.30021        -7.25185        -0.17946
   C       -0.51478        -7.72592        -1.43247
   S       -1.51630        -9.14221        -1.49095
   C       -1.13619        -8.06485         2.21307
   C       -0.59604        -7.08220         3.07087
   C       -0.99839        -6.76935         4.33372
   C       -0.35287        -5.80051         5.13430
   S        1.15769        -5.07531         4.64773
   C        1.26142        -4.17114         6.13175
   C        0.14759        -4.39677         6.93308
   C       -0.75041        -5.31833         6.37716
   C       -2.02406        -5.70949         7.05469
   C       -2.00169        -5.32940         8.53287
   C       -1.57192        -3.86597         8.67975
   C       -1.73109        -3.41073        10.10400
   O       -0.85448        -2.96183        10.78986
   C       -0.11686        -3.72333         8.24034
   C        2.40991        -3.36016         6.37925
   C        2.83631        -3.02090         7.64178
   C        3.95658        -2.24841         7.92695
   C        4.84701        -1.76749         6.87411
   C        4.64089        -1.99835         5.55718
   S        3.29208        -2.86053         4.94356
   C        5.90434        -1.10425         7.55594
   C        5.70432        -1.16961         8.93777
   C        6.73535        -0.50757         9.64096
   C        7.66273         0.02112         8.79942
   S        7.33245        -0.25426         7.12553
   C        4.47411        -1.88270         9.19152
   C        3.84889        -2.19852        10.40922
   C        4.35994        -2.00823        11.66541
   C        3.69295        -2.27808        12.86981
   C        2.55931        -2.99888        13.17804
   C        1.88922        -2.66506        14.46054
   O        2.31790        -1.95677        15.34442
   C        0.58113        -3.35494        14.41518
   C        0.52047        -4.15088        13.25902
   C        1.77996        -4.01288        12.52361
   C        2.17879        -4.86845        11.51909
   C        1.33490        -5.80183        10.89596
   N        0.68590        -6.53180        10.28669
   C        3.48659        -4.92743        11.00499
   N        4.54168        -5.03520        10.56311
   C       -0.60770        -4.91825        13.01810
   C       -1.66431        -4.85776        13.91429
   C       -1.58591        -4.05297        15.04077
   C       -0.45835        -3.29176        15.31839
  Br       -3.05878        -4.00059        16.23890
   H       -3.53009       -12.64004        10.44020
   H       -3.29550       -10.88094        12.12788
   H       -2.65040        -7.93651         9.07693
   H       -3.70815       -12.55753         4.97990
   H       -1.85667        -9.30888         4.61627
   H       -3.29910       -11.44546         0.21302
   H        0.29663        -6.38378         0.03354
   H       -0.14370        -7.32984        -2.35746
   H        0.19832        -6.48281         2.63864
   H       -1.86262        -7.24517         4.77030
   H       -2.18743        -6.78276         6.94206
   H       -2.85864        -5.20451         6.55593
   H       -1.27948        -5.95236         9.06627
   H       -2.99076        -5.47688         8.97149
   H       -2.23007        -3.24255         8.06181
   H       -2.75754        -3.53576        10.49981
   H        0.49041        -4.19561         9.01811
   H        0.16059        -2.66735         8.18964
   H        2.29254        -3.43322         8.47318
   H        5.31671        -1.65231         4.79120
   H        6.80651        -0.41213        10.70837
   H        8.54550         0.57106         9.06117
   H        2.84119        -2.58455        10.33307
   H        5.33157        -1.54785        11.76057
   H        4.09173        -1.75825        13.73857
   H       -0.69447        -5.55594        12.15492
   H       -2.54934        -5.44861        13.73269
   H       -0.38754        -2.67604        16.20174
*
