# ORCA input file
# SCF done       -207.890695173953          0.000653123589
! CAM-B3LYP def2-SVP def2/J RIJCOSX Grid4 TightSCF
%maxcore 5000
%tddft
    Mode sTDDFT
    Ethresh 5.0
    maxcore 5000
end

%pal
  nprocs 6
  end
* xyz 0 1
   C       -8.28559         6.70709        -0.37923
   C       -7.01265         7.23363        -0.53083
   C       -5.94098         6.43864        -0.17685
   C       -6.13842         5.13942         0.29789
   C       -4.80548         4.53163         0.52911
   O       -4.52901         3.42076         0.91280
   N       -3.88723         5.51730         0.21365
   C       -4.48474         6.69664        -0.21401
   O       -3.89287         7.69975        -0.52249
   C       -2.45160         5.34271         0.30317
   C       -1.82194         5.20384        -1.07746
   C       -7.40167         4.62251         0.47039
   C       -8.49960         5.42590         0.13761
   C       -9.86938         4.95174         0.27570
   C      -10.33904         4.20318         1.28136
   C      -11.72832         3.78751         1.40673
   C      -12.72661         4.57667         0.81037
   C      -14.04545         4.22267         0.94599
   C      -14.41596         3.10437         1.70031
   C      -15.89443         2.99747         1.66907
   O      -16.61696         2.18158         2.18138
   N      -16.32056         4.06170         0.88615
   C      -15.28033         4.85125         0.41843
   O      -15.40746         5.82449        -0.28014
   C      -17.71485         4.33725         0.61150
   C      -18.33776         5.18980         1.71099
   C      -13.46309         2.33488         2.31897
   C      -12.10281         2.65233         2.15963
   C      -11.18077         1.72964         2.80505
   C       -9.95083         1.36556         2.42953
   C       -9.21157         0.32324         3.15002
   C       -9.88117        -0.87738         3.41637
   C       -9.21070        -1.88750         4.06597
   C       -7.87613        -1.72252         4.45053
   C       -7.42801        -2.97318         5.10731
   O       -6.35182        -3.24141         5.58101
   N       -8.52246        -3.81948         5.07099
   C       -9.63762        -3.24824         4.46807
   O      -10.70044        -3.79517         4.32362
   C       -8.52479        -5.14809         5.64582
   C       -9.00559        -5.12278         7.09231
   C       -7.20587        -0.55040         4.21032
   C       -7.87465         0.50453         3.56815
   C       -7.22469         1.78499         3.37707
   C       -6.03378         2.14212         3.88166
   C       -5.41177         3.43788         3.68138
   C       -6.20846         4.57714         3.50775
   C       -5.60107         5.79633         3.32391
   C       -4.20766         5.91149         3.35093
   C       -3.86211         7.33605         3.14188
   O       -2.77809         7.85876         3.09434
   N       -5.07722         7.99689         3.01424
   C       -6.16822         7.14468         3.08709
   O       -7.32301         7.47476         2.97065
   C       -5.17755         9.43505         2.86149
   C       -5.63880         9.83584         1.46705
   C       -3.40634         4.81208         3.54386
   C       -4.00073         3.55115         3.68859
   C       -3.16650         2.36048         3.74380
   C       -1.89391         2.33807         4.16183
   C       -1.01024         1.18276         4.10211
   C        0.31991         1.43796         3.73325
   C        1.18136         0.38209         3.56258
   C        0.75276        -0.93212         3.78030
   C        1.89779        -1.83675         3.52108
   O        1.95931        -3.03825         3.58553
   N        2.94688        -1.00430         3.15550
   C        2.60672         0.34104         3.15996
   O        3.35177         1.24406         2.87506
   C        4.27277        -1.48949         2.83765
   C        5.12391        -1.63631         4.09398
   C       -0.53161        -1.19855         4.18911
   C       -1.43386        -0.13787         4.35612
   C       -2.76270        -0.42599         4.89272
   C       -3.42380        -1.56086         4.69634
   H       -9.14207         7.30753        -0.64777
   H       -6.85929         8.22648        -0.92317
   H       -2.28337         4.44092         0.89679
   H       -2.03777         6.21242         0.82129
   H       -2.24104         4.34738        -1.60132
   H       -0.74970         5.06293        -0.97695
   H       -2.00293         6.10182        -1.66276
   H       -7.53317         3.60961         0.81652
   H      -10.53628         5.27017        -0.51439
   H       -9.67873         3.91224         2.08615
   H      -12.46926         5.47327         0.27012
   H      -18.23145         3.37711         0.53760
   H      -17.75884         4.85888        -0.34755
   H      -18.28524         4.66925         2.66440
   H      -19.38001         5.38655         1.47678
   H      -17.81234         6.13843         1.79500
   H      -13.75505         1.47780         2.90705
   H      -11.59731         1.24205         3.67933
   H       -9.48731         1.77471         1.54281
   H      -10.90124        -1.01544         3.09266
   H       -7.50209        -5.52841         5.58965
   H       -9.18700        -5.76794         5.03659
   H       -8.35182        -4.49710         7.69581
   H       -8.99923        -6.12984         7.49912
   H      -10.01885        -4.73097         7.14395
   H       -6.17601        -0.45244         4.51007
   H       -7.77149         2.50185         2.78306
   H       -5.46888         1.44282         4.47872
   H       -7.28470         4.51035         3.53413
   H       -4.18189         9.83484         3.06778
   H       -5.88451         9.80410         3.61076
   H       -4.95687         9.44678         0.71483
   H       -5.66137        10.91943         1.39199
   H       -6.63852         9.44938         1.28473
   H       -2.33383         4.92310         3.53628
   H       -3.60576         1.45522         3.35086
   H       -1.42476         3.24718         4.51606
   H        0.65379         2.45008         3.56116
   H        4.72549        -0.76961         2.15150
   H        4.15904        -2.45671         2.34163
   H        4.66258        -2.34469         4.77826
   H        5.22612        -0.67543         4.59340
   H        6.11250        -1.99965         3.82815
   H       -0.83456        -2.21119         4.40373
   H       -3.18773         0.35306         5.51443
   H       -3.04449        -2.33539         4.05086
   H       -4.37143        -1.76982         5.16241
*
