# ORCA input file
# SCF done       -231.115031680236          0.000482863077
! CAM-B3LYP def2-SVP def2/J RIJCOSX Grid4 TightSCF
%maxcore 5000
%tddft
    Mode sTDDFT
    Ethresh 5.0
    maxcore 5000
end

%pal
  nprocs 6
  end
* xyz 0 1
   C        2.96574         1.46828        -3.09223
   C        1.88601         0.58745        -3.70434
   C        1.40170        -0.55767        -3.09095
   C        0.38327        -1.28347        -3.68718
   C       -0.16747        -0.86292        -4.88388
   C        0.29707         0.29565        -5.48514
   C        1.31733         1.01936        -4.89829
   C        4.18122         1.64036        -3.99508
   C        4.42007         0.80435        -5.07725
   C        5.54849         0.98758        -5.85713
   C        6.44149         2.00435        -5.56736
   C        6.20597         2.83922        -4.48854
   C        5.08345         2.65549        -3.70213
   C        3.39371         1.05007        -1.70214
   C        2.96506         2.02680        -0.82595
   C        2.31767         3.05907        -1.59520
   C        1.74018         4.21890        -1.14854
   C        1.68338         4.57559         0.21007
   N        1.61053         4.91325         1.30415
   C        1.16233         5.12578        -2.05929
   N        0.69418         5.86618        -2.79953
   O        2.35292         2.75744        -2.89868
   C        3.14312         2.06049         0.56242
   N        3.31321         2.04570         1.69767
   C        4.12161        -0.11962        -1.41605
   C        4.43957        -0.62634        -0.15397
   C        5.15687        -1.80155        -0.22431
   C        5.41009        -2.21079        -1.54289
   S        4.74615        -1.14550        -2.70510
   C        6.15999        -3.40205        -1.52313
   C        6.38016        -3.77087        -0.18712
   C        5.75440        -2.77623         0.76172
   C        4.67050        -3.42939         1.62384
   C        6.81009        -2.10092         1.64129
   C        7.11266        -4.93401        -0.07178
   C        7.47157        -5.46186        -1.31270
   S        6.87952        -4.48845        -2.64189
   C        8.23565        -6.63331        -1.54876
   C        8.61174        -7.02531        -2.85367
   C        9.41936        -8.18069        -3.11176
   N        9.75190        -8.47957        -4.38240
   C        9.33799        -7.72794        -5.35071
   C        8.53495        -6.58729        -5.09571
   N        8.19856        -6.26773        -3.88794
   F        8.10457        -5.81417        -6.08825
   F        9.68752        -8.05890        -6.59026
   C        9.88601        -9.03104        -2.08364
   C        9.48794        -8.66389        -0.77398
   C        8.68795        -7.48689        -0.51176
   N        8.44894        -7.33987         0.79156
   S        9.14398        -8.53743         1.60178
   N        9.78895        -9.31022         0.35252
   C       10.70394       -10.15648        -2.36012
   C       11.17694       -11.09334        -1.44042
   C       11.97310       -12.05332        -2.03003
   C       12.12477       -11.85445        -3.41092
   S       11.25804       -10.48842        -3.98713
   C       12.96740       -12.86037        -3.92033
   C       13.35219       -13.71499        -2.87532
   C       12.74007       -13.27013        -1.56880
   C       11.80304       -14.34013        -1.00141
   C       13.81816       -12.89997        -0.54658
   C       14.18913       -14.72885        -3.29001
   C       14.46717       -14.66530        -4.65742
   S       13.64677       -13.30807        -5.42468
   C       15.30326       -15.52303        -5.39523
   C       15.94722       -16.66728        -4.96867
   C       16.65015       -17.22683        -6.09527
   C       17.42818       -18.35424        -6.13836
   C       17.67162       -19.16432        -5.01544
   N       17.90323       -19.86160        -4.13429
   C       18.03453       -18.75949        -7.34415
   N       18.52736       -19.09474        -8.32403
   O       16.44160       -16.48339        -7.18842
   C       15.63165       -15.33794        -6.86133
   C       16.49841       -14.12487        -7.16383
   C       16.93146       -13.96028        -8.47543
   C       17.76805       -12.91118        -8.80550
   C       18.18477       -12.02110        -7.82906
   C       17.77368       -12.19604        -6.52032
   C       16.94022       -13.24988        -6.18302
   C       14.35531       -15.39186        -7.69272
   C       13.66582       -16.59570        -7.76784
   C       12.49463       -16.68477        -8.49768
   C       11.99660       -15.56944        -9.14894
   C       12.67690       -14.36688        -9.06946
   C       13.85345       -14.27495        -8.34657
   C       15.92465       -17.22811        -3.68604
   N       15.87897       -17.65179        -2.62001
   H        1.80355        -0.89354        -2.14651
   H        0.01649        -2.17683        -3.20432
   H       -0.96347        -1.43007        -5.34226
   H       -0.13783         0.63915        -6.41133
   H        1.67683         1.92925        -5.35451
   H        3.72967         0.00849        -5.31164
   H        5.72582         0.33156        -6.69576
   H        7.31851         2.14659        -6.18047
   H        6.89667         3.63528        -4.25504
   H        4.90724         3.31260        -2.86220
   H        4.13914        -0.14056         0.75549
   H        3.92223        -3.90661         0.99513
   H        4.18295        -2.67862         2.24023
   H        5.11443        -4.18224         2.26980
   H        7.57875        -1.64045         1.02490
   H        7.27743        -2.83615         2.29103
   H        6.34698        -1.33173         2.25377
   H        7.39926        -5.40996         0.84687
   H       10.92658       -11.03526        -0.39804
   H       11.03961       -14.60100        -1.73075
   H       11.31595       -13.96861        -0.10368
   H       12.36810       -15.23454        -0.75238
   H       14.48203       -12.14063        -0.95350
   H       14.40559       -13.77802        -0.29116
   H       13.35499       -12.51052         0.35613
   H       14.60197       -15.48732        -2.65158
   H       16.61383       -14.66520        -9.22869
   H       18.09819       -12.79139        -9.82612
   H       18.83716       -11.20037        -8.08630
   H       18.10771       -11.51695        -5.75025
   H       16.64810       -13.38058        -5.15143
   H       14.04685       -17.47228        -7.26331
   H       11.97167       -17.62741        -8.55428
   H       11.08130       -15.63816        -9.71709
   H       12.29471       -13.49229        -9.57359
   H       14.37728       -13.33271        -8.29331
*
