# ORCA input file
# SCF done       -192.028355499428          0.000899529045
! CAM-B3LYP def2-SVP def2/J RIJCOSX Grid4 TightSCF
%maxcore 5000
%tddft
    Mode sTDDFT
    Ethresh 5.0
    maxcore 5000
end

%pal
  nprocs 6
  end
* xyz 0 1
   C        2.30936         1.30912        -0.00829
   C        1.12438         2.16464        -0.30476
   O        0.07429         1.78427        -0.77371
   C        1.50595         3.51601         0.14182
   C        2.84396         3.51530         0.54084
   C        3.41397         2.19327         0.30564
   C        4.74403         1.92260         0.12308
   C        5.23146         0.70567        -0.39890
   N        5.66865        -0.24469        -0.87233
   C        5.78028         2.85368         0.34133
   N        6.66785         3.55973         0.51704
   C        3.44411         4.68191         1.03181
   C        2.69543         5.82772         1.10056
   C        1.34572         5.86828         0.68648
   C        0.72074         4.68425         0.19642
   C       -0.62786         4.72909        -0.21160
   C       -1.32796         5.90202        -0.14193
   C       -0.71642         7.07209         0.33641
   C        0.58974         7.05674         0.74269
   C        2.19129        -0.04197        -0.00148
   C        3.06365        -0.99916         0.57945
   C        3.25371        -2.30207         0.14867
   C        4.20768        -2.97359         0.90002
   C        4.70313        -2.20345         1.95176
   S        4.02617        -0.63319         2.00220
   C        5.68021        -2.95169         2.65129
   C        5.82889        -4.18999         2.02830
   C        4.89477        -4.31710         0.84912
   C        5.68026        -4.46647        -0.45825
   C        3.91041        -5.47487         1.03096
   C        6.81458        -4.97350         2.61816
   C        7.40738        -4.33064         3.69102
   S        6.72529        -2.74726         3.99294
   C        8.44925        -4.79970         4.55280
   C        9.49285        -5.70157         4.38688
   C        9.91095        -6.44192         3.19132
   O       10.49495        -7.49240         3.23304
   O        9.62469        -5.87609         2.00304
   C       10.12630        -5.71719         5.67803
   N        9.50333        -4.88223         6.48592
   O        8.47936        -4.32603         5.80723
   C       11.29011        -6.40838         6.14238
   C       11.82512        -6.22482         7.40915
   C       12.98920        -6.95338         7.59243
   C       13.33760        -7.68741         6.45625
   S       12.22019        -7.51236         5.16849
   C       14.55536        -8.36082         6.71072
   C       14.98737        -8.05849         8.00586
   C       13.99965        -7.14902         8.69825
   C       13.36682        -7.84501         9.90715
   C       14.64493        -5.82381         9.11045
   C       16.20803        -8.63333         8.30899
   C       16.71236        -9.40499         7.26601
   S       15.64079        -9.37809         5.87122
   C       17.98506       -10.01227         7.24681
   C       18.51634       -10.90261         6.36417
   C       19.99341       -10.99515         6.21585
   O       20.81944       -10.55737         6.98823
   C       20.20542       -11.66676         4.91913
   C       18.97789       -12.08940         4.40871
   C       17.92629       -11.76790         5.36933
   C       16.71584       -12.40193         5.47363
   C       15.88260       -12.26660         6.60360
   N       15.21430       -12.21964         7.53580
   C       16.22887       -13.33670         4.53924
   N       15.78551       -14.09856         3.80374
   C       18.90228       -12.73398         3.16795
   C       20.05978       -12.94121         2.46361
   C       21.31961       -12.53315         2.95435
   C       21.40765       -11.87656         4.21646
   C       22.66716       -11.46719         4.69987
   C       23.79508       -11.69932         3.96244
   C       23.71460       -12.34628         2.71868
   C       22.50599       -12.75437         2.22533
   H        4.47091         4.67772         1.35989
   H        3.14125         6.73622         1.47919
   H       -1.08715         3.82442        -0.57774
   H       -2.36031         5.93623        -0.45633
   H       -1.28781         7.98742         0.38144
   H        1.06266         7.95585         1.11065
   H        1.28851        -0.43621        -0.45932
   H        2.74597        -2.70034        -0.71088
   H        6.33700        -3.61202        -0.60243
   H        4.99358        -4.51903        -1.29874
   H        6.27839        -5.37370        -0.43434
   H        3.36289        -5.36560         1.96438
   H        4.44686        -6.41998         1.04889
   H        3.19953        -5.49112         0.20909
   H        7.07299        -5.97042         2.30912
   H        9.20253        -5.00929         2.07825
   H       11.35832        -5.57380         8.12452
   H       12.92751        -8.79348         9.60795
   H       12.58857        -7.21663        10.33256
   H       14.12194        -8.03519        10.66562
   H       15.09433        -5.33744         8.24772
   H       15.41778        -5.99938         9.85453
   H       13.89428        -5.16084         9.53261
   H       16.73013        -8.52872         9.24308
   H       18.68470        -9.63313         7.98656
   H       17.95184       -13.04777         2.76731
   H       20.02050       -13.42985         1.50060
   H       22.71560       -10.97063         5.65618
   H       24.75945       -11.38483         4.33284
   H       24.61818       -12.51878         2.15259
   H       22.44191       -13.25282         1.26870
*
