# ORCA input file
# SCF done       -152.178648046708          0.000265124031
! CAM-B3LYP def2-SVP def2/J RIJCOSX Grid4 TightSCF
%maxcore 5000
%tddft
    Mode sTDDFT
    Ethresh 5.0
    maxcore 5000
end

%pal
  nprocs 6
  end
* xyz 0 1
   C       -1.39622         0.52222        -0.30600
   C       -0.74841         0.29942        -1.45047
   C        0.63036        -0.09999        -1.46629
   C        1.28892        -0.46222        -0.34355
   C        0.56160        -0.48175         0.99084
   C       -0.68720         0.43085         1.01845
   N       -1.66286         0.05315         2.01396
   C       -1.70367        -1.14179         2.40063
   C       -0.74825        -2.16397         1.93068
   N        0.28804        -1.87295         1.28333
   F       -1.01706        -3.43734         2.19930
   F       -2.62387        -1.51075         3.28524
   C        2.63990        -0.93193        -0.35344
   C        3.34146        -1.52655         0.67439
   C        4.64388        -1.86034         0.30266
   C        4.96148        -1.51530        -1.01822
   S        3.61340        -0.77931        -1.81069
   C        6.26140        -1.83374        -1.38969
   C        6.96034        -2.43254        -0.35293
   S        5.98755        -2.60506         1.09619
   C        8.31196        -2.87557        -0.38111
   C        8.91472        -3.49148         0.73631
   C       10.27809        -3.93860         0.73251
   N       10.78025        -4.52512         1.83724
   C       10.03528        -4.67298         2.88319
   C        8.68917        -4.22353         2.88987
   N        8.17129        -3.66011         1.84811
   F        7.92371        -4.36873         3.96823
   F       10.56769        -5.25861         3.95279
   C       11.12696        -3.78536        -0.38459
   C       10.52966        -3.17301        -1.51283
   C        9.15095        -2.73074        -1.51228
   N        8.81242        -2.18743        -2.68238
   S       10.07281        -2.22525        -3.67310
   N       11.11984        -2.92856        -2.68348
   C       12.48310        -4.21352        -0.35835
   C       13.41643        -4.07646        -1.37386
   C       14.65309        -4.59965        -1.01619
   C       14.68604        -5.14490         0.27599
   S       13.15114        -4.99887         1.06129
   C       15.92603        -5.66989         0.62854
   C       16.86322        -5.52525        -0.37926
   S       16.19677        -4.71428        -1.78362
   C       18.21770        -5.99468        -0.36932
   C       18.67465        -6.87263         0.55307
   C       20.02497        -7.35778         0.55442
   C       20.95807        -6.83862        -0.24554
   C       20.64534        -5.67499        -1.14434
   C       19.14558        -5.57142        -1.50139
   N       18.77797        -4.24952        -1.95126
   C       19.40849        -3.26007        -1.49765
   C       20.58653        -3.40534        -0.62226
   N       21.17555        -4.50432        -0.47118
   F       21.03998        -2.32234         0.00072
   F       19.05340        -2.03530        -1.86931
   H       -2.43325         0.81338        -0.26446
   H       -1.25307         0.40926        -2.39803
   H        1.13856        -0.13744        -2.41860
   H        1.25749        -0.14527         1.77110
   H       -0.37708         1.45100         1.28891
   H        2.92013        -1.74206         1.63753
   H        6.69710        -1.65001        -2.35301
   H       13.18486        -3.61601        -2.31513
   H       16.13335        -6.11838         1.58166
   H       18.01350        -7.23917         1.32144
   H       20.26881        -8.15622         1.23851
   H       21.98824        -7.15059        -0.21101
   H       21.22806        -5.76692        -2.07188
   H       18.93228        -6.23925        -2.34852
*
