# ORCA input file
# SCF done       -281.973352902659          0.000514717453
! CAM-B3LYP def2-SVP def2/J RIJCOSX Grid4 TightSCF
%maxcore 5000
%tddft
    Mode sTDDFT
    Ethresh 5.0
    maxcore 5000
end

%pal
  nprocs 6
  end
* xyz 0 1
   C       -8.75413         2.51360        -2.08184
   C       -9.02831         2.92684        -3.35533
   F       -9.24351         4.22422        -3.61081
   C       -9.08840         1.99818        -4.41358
   F       -9.35933         2.43173        -5.65239
   C       -8.87338         0.66823        -4.18344
   C       -8.58862         0.21136        -2.88212
   C       -8.52719         1.14914        -1.81107
   C       -8.24185         0.71449        -0.49633
   C       -8.02444        -0.61748        -0.25914
   C       -8.09076        -1.54549        -1.33500
   C       -8.36299        -1.15718        -2.61463
   C       -7.82825        -2.90331        -0.82251
   O       -7.79748        -3.92377        -1.48193
   C       -7.61655        -2.75619         0.62725
   C       -7.71081        -1.34821         0.96691
   C       -7.52128        -0.77268         2.19753
   C       -7.18309        -1.44899         3.38822
   N       -6.89926        -1.91346         4.40015
   C       -7.62618         0.61236         2.44577
   N       -7.69590         1.72550         2.71826
   C       -7.38734        -3.77264         1.51578
   C       -7.26232        -5.15983         1.31317
   C       -7.00156        -6.02154         2.36816
   C       -6.87990        -7.36501         1.99803
   C       -6.64938        -8.48287         2.84461
   C       -6.36258        -8.30613         4.24929
   C       -5.57842        -7.34923         4.83663
   C       -5.50038        -7.47368         6.23583
   C       -6.22600        -8.51627         6.72765
   S       -7.01388        -9.38555         5.45217
   C       -6.38944        -8.94112         8.14185
   C       -6.69747        -9.72735         2.23944
   C       -6.91132        -9.90559         0.84478
   C       -7.12747        -8.79289        -0.00404
   C       -7.09346        -7.53950         0.60353
   S       -7.38115        -6.02282        -0.20341
   C       -7.39429        -8.93642        -1.41551
   C       -7.02400        -8.10198        -2.43841
   C       -7.48033        -8.52565        -3.69862
   C       -8.21844        -9.67111        -3.65482
   S       -8.35234       -10.25881        -2.03467
   C       -8.85103       -10.41350        -4.77450
   C       -6.81384       -11.25779         0.47604
   C       -6.57175       -12.11244         1.52576
   S       -6.43413       -11.25580         3.04325
   C       -6.43413       -13.53129         1.48797
   C       -6.52770       -14.31945         0.31708
   C       -6.36963       -15.74839         0.36007
   N       -6.45823       -16.45964        -0.78221
   C       -6.69235       -15.85841        -1.90236
   C       -6.85654       -14.45226        -1.94254
   N       -6.77159       -13.73130        -0.87334
   F       -7.10601       -13.81916        -3.09075
   F       -6.77541       -16.59838        -3.00560
   C       -6.12739       -16.46754         1.55062
   C       -6.04691       -15.68610         2.72452
   C       -6.19382       -14.25074         2.67913
   N       -6.07849       -13.70304         3.88840
   S       -5.81860       -14.85800         4.97027
   N       -5.83237       -16.11355         3.97058
   C       -5.98112       -17.88548         1.54931
   C       -5.78526       -18.68581         2.65065
   C       -5.68171       -20.05516         2.34837
   C       -5.44529       -21.12267         3.24784
   C       -5.39579       -20.94474         4.68074
   C       -4.61123       -21.60753         5.58643
   C       -4.86914       -21.24468         6.92108
   C       -5.85949       -20.31856         7.05019
   S       -6.48579       -19.85949         5.50283
   C       -6.40642       -19.71641         8.29330
   C       -5.30116       -22.37833         2.67382
   C       -5.40073       -22.62492         1.27944
   C       -5.63375       -21.55420         0.38341
   C       -5.78051       -20.29423         0.95331
   S       -6.04291       -18.80881         0.07270
   C       -5.69168       -21.73378        -1.04921
   C       -6.47942       -21.07508        -1.95412
   C       -6.22904       -21.44392        -3.28864
   C       -5.23984       -22.37013        -3.42218
   S       -4.60601       -22.82363        -1.87547
   C       -4.70409       -22.98340        -4.66453
   C       -5.31085       -23.99948         0.98522
   C       -5.17056       -24.80391         2.08936
   S       -5.06337       -23.85697         3.56170
   C       -5.02995       -26.21354         2.07386
   C       -5.18799       -27.09311         3.10000
   C       -4.55498       -28.43723         3.03471
   O       -4.09256       -28.97861         2.05749
   C       -4.55802       -28.92988         4.42945
   C       -3.99419       -30.06323         4.93985
   C       -4.10530       -30.32266         6.32461
   C       -4.79566       -29.39471         7.15753
   C       -4.89664       -29.65760         8.53849
   C       -4.34305       -30.78973         9.06681
   C       -3.66301       -31.70781         8.24206
   C       -3.54558       -31.48026         6.89963
   F       -3.12948       -32.80996         8.78766
   F       -4.44206       -31.03815        10.38005
   C       -5.37638       -28.23270         6.59980
   C       -5.26486       -28.00798         5.25416
   C       -5.79630       -26.94614         4.40513
   C       -6.87126       -26.15118         4.70550
   C       -7.56157       -25.39336         3.73515
   N       -8.18692       -24.82943         2.95513
   C       -7.46297       -26.08390         5.98164
   N       -7.95924       -25.97879         7.01159
   H       -8.71144         3.23783        -1.28339
   H       -8.92304        -0.03031        -5.00396
   H       -8.20455         1.45038         0.29014
   H       -8.40595        -1.88465        -3.41090
   H       -7.27665        -3.49225         2.55649
   H       -6.93080        -5.67088         3.38222
   H       -5.03386        -6.60905         4.27819
   H       -4.92507        -6.81027         6.85674
   H       -5.82195        -8.28365         8.79577
   H       -6.03911        -9.96373         8.27873
   H       -7.43854        -8.90767         8.43416
   H       -6.40886        -7.23191        -2.30032
   H       -7.26880        -7.99729        -4.61108
   H       -8.62920        -9.92428        -5.71974
   H       -9.93250       -10.45736        -4.64598
   H       -8.47927       -11.43737        -4.80881
   H       -6.89577       -11.62012        -0.52911
   H       -5.70440       -18.27113         3.63727
   H       -3.84091       -22.30237         5.30417
   H       -4.33888       -21.66038         7.75932
   H       -5.86738       -20.09537         9.15804
   H       -7.46270       -19.96052         8.40447
   H       -6.31684       -18.63081         8.26787
   H       -7.24234       -20.37359        -1.67154
   H       -6.76226       -21.02860        -4.12495
   H       -5.17721       -22.53369        -5.53379
   H       -4.89400       -24.05668        -4.67753
   H       -3.62680       -22.83654        -4.73308
   H       -5.40385       -24.40913        -0.00383
   H       -4.66954       -26.63964         1.14257
   H       -3.47169       -30.75458         4.29633
   H       -5.41757       -28.96719         9.18331
   H       -3.02185       -32.19281         6.28179
   H       -5.88973       -27.54281         7.25075
*
