# ORCA input file
# SCF done       -191.258421584615          0.000556923620
! CAM-B3LYP def2-SVP def2/J RIJCOSX Grid4 TightSCF
%maxcore 5000
%tddft
    Mode sTDDFT
    Ethresh 5.0
    maxcore 5000
end

%pal
  nprocs 6
  end
* xyz 0 1
   C       -3.24484         1.59758        -5.61494
   C       -1.95166         1.14613        -5.59364
   C       -1.37699         0.35836        -6.61433
   N       -0.84679        -0.27730        -7.40968
   C       -1.02022         1.34729        -4.55219
   N       -0.20985         1.44127        -3.74394
   C       -4.22582         1.28392        -6.64560
   C       -5.49628         1.76058        -6.21680
   C       -6.62195         1.59869        -6.97238
   C       -6.52399         0.94834        -8.22246
   C       -5.25338         0.47914        -8.66531
   C       -4.10700         0.65517        -7.85713
   C       -5.16509        -0.16132        -9.91815
   C       -6.27731        -0.33282       -10.69650
   C       -7.52809         0.12779       -10.25866
   C       -7.64893         0.75449        -9.04802
   C       -5.36330         2.41760        -4.90626
   O       -6.27262         2.87355        -4.24562
   C       -3.90916         2.40013        -4.59504
   C       -3.23611         3.09755        -3.63411
   C       -3.69477         3.94139        -2.59719
   C       -4.95065         4.23959        -2.10369
   C       -4.91489         5.15614        -1.05683
  Cl       -6.32947         5.70643        -0.26308
   C       -3.63670         5.59155        -0.70821
   S       -2.46153         4.81197        -1.71172
   C       -3.27824         6.54272         0.28129
   C       -2.00406         6.98535         0.62023
  Cl       -0.57794         6.39284        -0.11544
   C       -1.97969         7.96811         1.61381
   C       -3.24074         8.28920         2.05630
   S       -4.46889         7.37190         1.23853
   C       -3.64536         9.25755         3.02164
   C       -2.96453        10.05127         3.93651
   C       -1.51170        10.07403         4.20542
   O       -0.67589        10.02744         3.34673
   O       -1.16286        10.11955         5.50126
   C       -4.01436        10.79563         4.56809
   N       -5.18032        10.43552         4.07512
   O       -4.96254         9.49143         3.14559
   C       -3.94896        11.86431         5.52964
   C       -5.02210        12.39545         6.20055
   C       -4.66871        13.48680         7.00201
  Cl       -5.80619        14.33445         7.96071
   C       -3.32219        13.81916         6.94678
   S       -2.48701        12.73321         5.87600
   C       -2.64425        14.86692         7.62162
   C       -1.28927        15.18981         7.56010
  Cl       -0.16719        14.31136         6.60565
   C       -0.92013        16.28569         8.33507
   C       -1.98278        16.84047         9.02231
   S       -3.46125        15.96888         8.67636
   C       -2.10416        17.94316         9.89745
   C       -1.17144        18.78800        10.42712
   C       -1.50336        19.89164        11.32064
   C       -2.74793        20.40842        11.56962
   C       -2.99017        21.49361        12.43963
   N       -3.25954        22.36856        13.13216
   C       -3.96304        19.98469        10.98972
   N       -4.99568        19.72439        10.55903
   C       -0.25816        20.41369        11.86956
   C        0.82676        19.72274        11.26143
   C        0.30975        18.72074        10.31614
   O        0.98390        17.99901         9.61150
   C        2.12742        20.00322        11.56763
   C        2.40868        21.00556        12.52206
   C        1.32846        21.69734        13.14265
   C       -0.00775        21.38654        12.80167
   C        1.61946        22.69351        14.09696
   C        2.91405        22.99372        14.42287
   C        3.97670        22.31200        13.81097
   C        3.72950        21.33920        12.88063
   H       -7.57497         1.96569        -6.62121
   H       -3.15982         0.29294        -8.22353
   H       -4.20020        -0.51558       -10.24997
   H       -6.19945        -0.82486       -11.65437
   H       -8.39522        -0.01608       -10.88572
   H       -8.60931         1.11158        -8.70604
   H       -2.15389         3.04233        -3.67331
   H       -5.85611         3.81386        -2.49595
   H       -1.08135         8.43759         1.97024
   H       -1.91579        10.12019         6.10707
   H       -6.01888        12.00795         6.10906
   H        0.08447        16.66223         8.39879
   H       -3.13079        18.11744        10.19910
   H        2.93116        19.46477        11.08771
   H       -0.80077        21.92601        13.29402
   H        0.79805        23.21639        14.56441
   H        3.12663        23.75880        15.15440
   H        4.99202        22.56146        14.08059
   H        4.54348        20.81091        12.40614
*
