# ORCA input file
# SCF done       -169.572590869485          0.002143194973
! CAM-B3LYP def2-SVP def2/J RIJCOSX Grid4 TightSCF
%maxcore 5000
%tddft
    Mode sTDDFT
    Ethresh 5.0
    maxcore 5000
end

%pal
  nprocs 6
  end
* xyz 0 1
   C       12.91869         5.09697         3.42621
   S       11.87038         5.11281         2.07098
   C       12.70764         3.75944         1.34844
   C       13.75555         3.35838         2.15746
   C       13.85884         4.11381         3.34914
   C       14.90236         3.85477         4.38745
   C       15.45044         2.43706         4.25450
   C       15.86650         2.16628         2.81193
   C       14.67797         2.21586         1.83922
   C       13.86639         0.94506         1.93047
   O       13.58319         0.24039         1.00333
   C       12.26578         3.17053         0.13287
   C       11.15861         3.56545        -0.53695
   C       10.63882         2.87228        -1.67415
   C        9.48713         3.21709        -2.33573
   O        8.95348         2.45241        -3.36308
   C        9.65030         1.32345        -3.66934
   C       10.86614         0.98632        -3.00710
   C       11.41218        -0.16754        -3.46120
   S       10.44676        -0.86595        -4.70800
   C        9.29701         0.41662        -4.61249
   O       11.39033         1.76631        -2.02273
   C        8.75887         4.42082        -2.08158
   C        7.67527         4.83615        -2.77000
   C        7.16271         6.17629        -2.60527
   C        7.06962         6.87375        -1.46499
   C        7.17166         6.28413        -0.09300
   C        7.06202         8.38501        -1.51269
   N        8.44486         8.80489        -1.27477
   C        9.41671         8.22463        -2.01018
   C       10.67419         7.91892        -1.58436
   C       11.53850         7.14519        -2.37234
   C       12.72213         6.59652        -1.94582
   C       13.52802         5.66968        -2.64416
   C       14.62290         5.24788        -1.95077
   C       14.74547         5.83231        -0.67224
   S       13.42769         6.92428        -0.36928
   C       15.76120         5.63270         0.25274
   C       16.90974         4.83629         0.11272
   C       17.74838         4.88649         1.19357
   C       17.28923         5.71011         2.23977
   S       15.76270         6.43983         1.80566
   C       17.91570         5.91716         3.46146
   C       17.35204         6.64548         4.49480
   C       17.96323         6.89675         5.71497
   C       17.37993         7.57049         6.83709
   C       16.04877         7.88072         7.02315
   C       15.54380         8.54396         8.15621
   N       15.06821         9.08661         9.05084
   C       15.00550         7.53352         6.14902
   N       14.08966         7.26174         5.50780
   C       18.44031         7.80943         7.81576
   C       19.63229         7.21349         7.33928
   C       19.36748         6.58908         6.02207
   O       20.16971         5.96569         5.35181
   C       20.81361         7.26348         8.03471
   C       20.82198         7.94094         9.26006
   C       19.62725         8.53271         9.72644
   C       18.42859         8.47744         9.02345
   S       19.86020         9.32348        11.25725
   C       21.53947         8.85362        11.24703
   C       21.90771         8.14166        10.15688
  Br       22.64874         9.35021        12.67718
   H       12.80476         5.83053         4.19916
   H       14.48098         4.01832         5.38069
   H       15.71769         4.57165         4.26364
   H       14.69320         1.71737         4.57051
   H       16.31578         2.31738         4.90867
   H       16.34622         1.18806         2.73477
   H       16.59582         2.92065         2.50803
   H       15.04586         2.30943         0.81084
   H       13.52119         0.70850         2.95391
   H       12.82795         2.32371        -0.23195
   H       10.59983         4.40821        -0.16380
   H       12.31132        -0.64381        -3.13217
   H        8.43785         0.42511        -5.24928
   H        9.18013         5.07731        -1.33996
   H        7.27840         4.23305        -3.57311
   H        6.91563         6.67810        -3.53574
   H        7.06856         5.20467        -0.12820
   H        6.38031         6.69108         0.53563
   H        8.12297         6.52313         0.38242
   H        6.43047         8.83462        -0.74641
   H        6.74923         8.74787        -2.49509
   H        8.68086         8.98645        -0.30793
   H        9.11710         7.94428        -3.01105
   H       10.98984         8.17861        -0.58281
   H       11.20878         6.88207        -3.36901
   H       13.26726         5.33312        -3.63176
   H       15.33798         4.53722        -2.32298
   H       17.10021         4.25390        -0.77084
   H       18.67923         4.35241         1.26748
   H       18.88495         5.46381         3.60922
   H       16.36128         7.05423         4.32885
   H       21.70672         6.79902         7.64701
   H       17.54532         8.94888         9.42032
   H       22.90337         7.77381         9.98871
*
