# ORCA input file
# SCF done       -213.211867891647          0.000917568249
! CAM-B3LYP def2-SVP def2/J RIJCOSX Grid4 TightSCF
%maxcore 5000
%tddft
    Mode sTDDFT
    Ethresh 5.0
    maxcore 5000
end

%pal
  nprocs 6
  end
* xyz 0 1
   C       -6.12416        -1.71932        -0.96179
   C       -5.24090        -2.74873        -0.78662
   C       -5.55931        -4.11054        -0.97911
   N       -5.76025        -5.23084        -1.12467
   C       -3.89095        -2.59072        -0.40691
   N       -2.78784        -2.52687        -0.09615
   C       -7.52734        -1.84647        -1.33182
   C       -8.09379        -0.55355        -1.46916
   C       -9.41645        -0.35128        -1.77866
   C      -10.22249        -1.47920        -1.96227
   C       -9.64709        -2.76763        -1.83630
   C       -8.31020        -2.97209        -1.52283
   S      -10.81955        -4.02049        -2.11006
   C      -12.04927        -2.81508        -2.38320
   C      -11.60722        -1.53904        -2.27579
  Br      -13.79853        -3.35438        -2.78726
   C       -7.05472         0.46277        -1.22708
   O       -7.11495         1.64570        -1.46640
   C       -5.85108        -0.29863        -0.77650
   C       -4.73755         0.30551        -0.31218
   C       -4.71594         1.73223        -0.00694
   C       -3.88727         2.58977        -0.73781
   C       -3.91406         3.95679        -0.55423
   C       -4.75369         4.52866         0.39697
   C       -5.53001         3.69656         1.16827
   C       -5.51631         2.30689         0.98059
   N       -6.30098         1.70123         1.94837
   C       -6.50554         0.29797         2.16673
   C       -6.87717         2.62910         2.77951
   O       -7.56357         2.36981         3.73612
   C       -6.49046         4.01304         2.27179
   C       -7.76891         4.71165         1.76100
   C       -8.28796         3.96821         0.52630
   O       -8.67066         2.82308         0.47734
   N       -8.23512         4.83342        -0.52923
   C       -8.57067         4.46108        -1.87612
   C       -7.81332         6.09353        -0.13520
   C       -7.68902         7.24182        -0.88866
   C       -7.30706         8.42719        -0.24370
   C       -7.00813         8.40624         1.12214
   C       -7.10982         7.24047         1.86476
   C       -7.53074         6.08879         1.23744
   C       -7.28454         9.65979        -1.00587
   C       -7.47079        10.87934        -0.46686
   C       -7.57166        12.09774        -1.19626
   O       -7.31382        12.18946        -2.53070
   C       -8.00112        13.33009        -0.74788
   C       -8.44827        14.07412         0.43233
   O       -8.57715        13.73763         1.58133
   N       -8.71366        15.34671        -0.06765
   C       -8.49277        15.51050        -1.43727
   O       -8.67345        16.53240        -2.04895
   C       -8.02638        14.19452        -1.86751
   C       -7.58646        13.45889        -2.95630
   C       -7.42299        13.87442        -4.29387
   C       -6.79714        13.17420        -5.28423
   C       -6.69799        13.66999        -6.59268
   C       -5.96179        13.11866        -7.61143
   C       -5.88843        13.60486        -8.94109
   C       -5.04179        12.90931        -9.74648
   C       -4.37972        11.84186        -9.09571
   S       -4.91048        11.72363        -7.43135
   C       -3.40923        11.01752        -9.62844
   C       -2.91086        11.02590       -10.95315
   C       -1.91075        10.13269       -11.17153
   C       -1.55025         9.36922       -10.02949
   S       -2.56954         9.81302        -8.67116
   C       -0.54075         8.44765        -9.97818
   C       -0.11324         7.70207        -8.86566
   S       -0.82508         7.75850        -7.26174
   C        0.27969         6.62434        -6.59527
   C        1.17585         6.19963        -7.54835
   C        0.94421         6.80892        -8.81793
   O        1.83867         6.37960        -9.73131
   C        2.63798         5.50518        -9.06163
   N        3.68768         4.88934        -9.78623
   O        4.39337         4.11826        -9.16414
   O        3.81152         5.17231       -10.95763
   C        2.29783         5.34764        -7.74523
   H       -9.81874         0.64618        -1.85529
   H       -7.92157        -3.97255        -1.43116
   H      -12.23098        -0.67442        -2.41050
   H       -3.81590        -0.24363        -0.16910
   H       -3.24667         2.16024        -1.49353
   H       -3.28166         4.58847        -1.15850
   H       -4.78365         5.59862         0.53629
   H       -5.55776        -0.24129         2.11797
   H       -7.20237        -0.11691         1.43384
   H       -6.94162         0.19366         3.16139
   H       -6.05229         4.61396         3.07241
   H       -8.51256         4.68068         2.56351
   H       -8.63978         3.37523        -1.90190
   H       -7.78292         4.78232        -2.55790
   H       -9.52176         4.90529        -2.17976
   H       -7.91760         7.24985        -1.94310
   H       -6.68116         9.31212         1.60654
   H       -6.87778         7.24226         2.91898
   H       -7.18695         9.56863        -2.07974
   H       -7.63957        11.00232         0.59317
   H       -9.04918        16.09768         0.51840
   H       -7.81380        14.86148        -4.49928
   H       -6.34523        12.21677        -5.06059
   H       -7.23812        14.57960        -6.82255
   H       -6.46557        14.45661        -9.25468
   H       -4.86241        13.14321       -10.78014
   H       -3.30220        11.68878       -11.70327
   H       -1.40581         9.99815       -12.11146
   H        0.02008         8.27104       -10.88693
   H        0.20532         6.34708        -5.56459
   H        2.79087         4.71230        -7.03921
*
