# ORCA input file
# SCF done       -238.031586488309          0.000493637689
! CAM-B3LYP def2-SVP def2/J RIJCOSX Grid4 TightSCF
%maxcore 5000
%tddft
    Mode sTDDFT
    Ethresh 5.0
    maxcore 5000
end

%pal
  nprocs 6
  end
* xyz 0 1
   C      -19.03226         5.28598        -0.09321
   C      -19.16021         4.15614         0.66985
   C      -20.38416         3.68844         1.19293
   N      -21.34759         3.26437         1.65070
   C      -18.09993         3.29339         1.02047
   N      -17.29451         2.53646         1.33127
   C      -20.12448         6.14271        -0.53584
   C      -19.60382         7.13611        -1.40088
   C      -20.39302         8.09237        -1.99203
   C      -21.76432         8.06703        -1.71819
   C      -22.27571         7.07471        -0.84756
   C      -21.47713         6.10881        -0.24873
   S      -23.99407         7.23022        -0.64103
   C      -24.00241         8.60418        -1.71451
   C      -22.78253         8.93259        -2.20269
  Br      -25.61995         9.47609        -2.08780
   C      -18.14293         6.96453        -1.53174
   O      -17.38989         7.68003        -2.15854
   C      -17.80123         5.80423        -0.66774
   C      -16.53357         5.43637        -0.33811
   C      -15.33876         5.97099        -0.93156
   C      -14.28961         6.35436        -0.07312
   C      -13.20543         7.06792        -0.52519
   C      -13.09811         7.42048        -1.87193
   C      -14.06148         6.97777        -2.74456
   C      -15.15598         6.21930        -2.29740
   N      -15.88157         5.76389        -3.37426
   C      -16.88351         4.73834        -3.37290
   C      -15.37325         6.24471        -4.55931
   O      -15.82242         6.00320        -5.65035
   C      -14.15361         7.09990        -4.23400
   C      -12.92809         6.52085        -4.96483
   C      -12.56618         5.17659        -4.32833
   O      -13.29047         4.21850        -4.18883
   N      -11.27405         5.25597        -3.89508
   C      -10.60938         4.20057        -3.18075
   C      -10.73636         6.51475        -4.12332
   C       -9.50270         7.00083        -3.75243
   C       -9.21482         8.34680        -4.01553
   C      -10.16038         9.14208        -4.67011
   C      -11.38746         8.63363        -5.06535
   C      -11.68009         7.31872        -4.77662
   C       -7.99480         8.95478        -3.53424
   C       -6.84481         8.31954        -3.24097
   C       -5.73183         8.95928        -2.62423
   S       -5.93341        10.51761        -1.84758
   C       -4.29005        10.49373        -1.36150
   C       -3.61460         9.35231        -1.79430
   C       -4.43903         8.47906        -2.49324
   C       -2.16547         9.39716        -1.36338
   C       -1.82740         8.23357        -0.42705
   C       -1.22652         9.41037        -2.57263
   C       -2.13545        10.71742        -0.62468
   C       -3.40355        11.31306        -0.63853
   S       -3.46015        12.78835         0.22139
   C       -1.74382        12.64009         0.59759
   C       -1.20080        11.47314         0.05740
   C       -1.10071        13.62187         1.36716
   C       -1.78143        14.64352         1.97505
   C       -1.23440        15.65192         2.76712
   C       -2.02588        16.55228         3.45021
   C       -1.63323        17.60888         4.29827
   C       -2.67340        18.26649         4.89302
   C       -3.93929        17.75070         4.54751
   S       -3.77894        16.44328         3.41067
   C       -5.18814        18.09350         5.04426
   C       -5.53747        19.02338         6.03928
   C       -6.85740        18.97532         6.38904
   C       -7.60617        17.98553         5.71229
   S       -6.60088        17.19549         4.53306
   C       -8.95355        17.72104         5.92012
   C       -9.76460        16.72093         5.40373
   C       -9.51213        15.52082         4.75008
   C       -8.38236        14.65604         4.64816
   C       -7.29391        14.60465         5.50078
   C       -6.17289        13.78122         5.30447
   N       -5.21270        13.16268         5.17226
   C       -7.24369        15.30173         6.72038
   N       -7.18532        15.82946         7.73949
   C       -8.66527        13.65893         3.61323
   C      -10.02119        13.78870         3.22841
   C      -10.61357        14.93620         3.95309
   O      -11.76084        15.32667         3.88919
   C      -10.62383        12.93250         2.34265
   C       -9.84738        11.89882         1.80401
   C       -8.48677        11.79846         2.16783
   C       -7.87611        12.66656         3.06761
   S       -7.71927        10.43992         1.39730
   C       -9.22963        10.01657         0.63576
   C      -10.24900        10.85866         0.91970
  Br       -9.33875         8.47565        -0.42890
   H      -19.96522         8.83449        -2.64771
   H      -21.91321         5.37734         0.41084
   H      -22.60585         9.75106        -2.87639
   H      -16.38459         4.78761         0.51645
   H      -14.38221         6.12384         0.97802
   H      -12.43253         7.36924         0.16448
   H      -12.25817         8.00462        -2.21503
   H      -17.87477         5.13648        -3.13527
   H      -16.62345         3.96444        -2.64961
   H      -16.90876         4.31458        -4.37758
   H      -14.31983         8.12996        -4.56000
   H      -13.19555         6.37951        -6.01711
   H      -11.30623         3.36681        -3.10618
   H      -10.33223         4.53603        -2.17924
   H       -9.71409         3.87986        -3.71678
   H       -8.79728         6.38708        -3.21768
   H       -9.92499        10.17735        -4.86674
   H      -12.10607         9.26368        -5.56727
   H       -8.03990        10.02650        -3.38013
   H       -6.71835         7.26985        -3.46728
   H       -4.13250         7.53482        -2.90642
   H       -1.92947         7.28835        -0.95444
   H       -2.49848         8.23013         0.42887
   H       -0.80530         8.32689        -0.06849
   H       -1.32291         8.48243        -3.13086
   H       -0.19570         9.51639        -2.24372
   H       -1.46972        10.24080        -3.23178
   H       -0.16591        11.21217         0.18877
   H       -0.03022        13.52959         1.49469
   H       -2.85935        14.65955         1.85914
   H       -0.16093        15.72620         2.87756
   H       -0.59610        17.84840         4.45579
   H       -2.56112        19.08790         5.57753
   H       -4.81458        19.68118         6.48702
   H       -7.30557        19.58948         7.14933
   H       -9.45331        18.45029         6.54676
   H      -10.83089        16.92320         5.47355
   H      -11.66531        13.04187         2.08365
   H       -6.83567        12.54657         3.32025
   H      -11.24698        10.74739         0.53567
*
