# ORCA input file
# SCF done       -190.048819387189          0.000458146319
! CAM-B3LYP def2-SVP def2/J RIJCOSX Grid4 TightSCF
%maxcore 5000
%tddft
    Mode sTDDFT
    Ethresh 5.0
    maxcore 5000
end

%pal
  nprocs 6
  end
* xyz 0 1
   C       -1.70896        -0.41728        -2.17375
   C       -2.46691        -1.27460        -2.93664
   C       -2.07474        -2.58269        -3.28107
   N       -1.79277        -3.64379        -3.61775
   C       -3.74876        -0.96894        -3.43345
   N       -4.81952        -0.79473        -3.81439
   C       -0.46421        -0.75419        -1.49204
   C       -0.02825         0.38129        -0.76627
   C        1.11720         0.38008        -0.01022
   C        1.86482        -0.80247         0.03818
   C        1.41799        -1.93215        -0.68573
   C        0.25940        -1.92984        -1.45411
   S        2.49212        -3.28393        -0.48807
   C        3.51200        -2.32527         0.55131
   C        3.07333        -1.05883         0.74231
  Br        5.06180        -3.08650         1.28420
   C       -0.97987         1.49388        -0.97686
   O       -0.84674         2.64067        -0.59316
   C       -2.03599         0.94819        -1.84712
   C       -3.01472         1.69048        -2.47640
   C       -3.54143         2.93064        -2.12016
   S       -4.31393         3.85999        -3.38039
   C       -4.76296         5.14772        -2.31409
   C       -4.28225         4.88471        -1.00495
   C       -3.64418         3.61532        -0.88770
   C       -3.27457         3.13915         0.37994
   C       -3.39625         3.97273         1.45796
   F       -3.06281         3.53501         2.68369
   C       -3.87858         5.28590         1.31208
   F       -3.92674         6.09063         2.38972
   C       -4.33709         5.74037         0.10470
   C       -5.57855         6.17135        -2.81409
   C       -6.46055         6.91869        -2.07015
   C       -7.36349         7.82615        -2.61973
   C       -8.41035         8.37310        -1.90155
   C       -9.42907         9.22688        -2.38215
   C      -10.38270         9.53832        -1.45618
   C      -10.15573         8.95098        -0.19431
   S       -8.68778         8.00051        -0.21728
   C      -10.92633         9.02565         0.95301
   C      -12.16032         9.68111         1.16581
   C      -12.65598         9.53468         2.42613
   C      -11.83724         8.76241         3.29093
   S      -10.40991         8.21586         2.40913
   C      -12.02149         8.46739         4.61414
   C      -11.04527         7.72667         5.32817
   C      -10.95919         7.44480         6.64363
   C      -11.97157         7.80829         7.67643
   C       -9.71545         6.74092         7.15918
   N       -8.54063         7.09415         6.40133
   C       -8.14513         6.43741         5.29878
   C       -7.55592         7.03559         4.22298
   C       -7.19261         6.38779         3.03223
   C       -6.82724         5.09094         2.76194
   C       -6.25393         4.03263         3.55569
   C       -5.71430         4.11652         4.81702
   C       -5.16617         3.02877         5.52596
   N       -4.75325         2.18419         6.18598
   C       -5.59394         5.29294         5.57637
   N       -5.44991         6.20735         6.25709
   C       -6.10543         2.86418         2.68583
   C       -6.49861         3.21221         1.37033
   C       -6.94341         4.61768         1.36978
   O       -7.34385         5.25774         0.41401
   C       -6.38216         2.35008         0.30635
   C       -5.83411         1.08447         0.54560
   C       -5.44981         0.74774         1.86475
   C       -5.58351         1.61237         2.94357
   S       -4.77455        -0.84940         1.94905
   C       -5.01578        -1.04395         0.23327
   C       -5.57087         0.03110        -0.37576
  Br       -4.51348        -2.66973        -0.56157
   H        1.42580         1.26048         0.53140
   H       -0.04135        -2.81450        -1.99020
   H        3.57918        -0.33348         1.35310
   H       -3.39773         1.29511        -3.41076
   H       -2.91713         2.13580         0.52525
   H       -4.71773         6.74422         0.02570
   H       -5.60780         6.26929        -3.89293
   H       -6.56448         6.70287        -1.01722
   H       -7.28645         8.08426        -3.66804
   H       -9.43514         9.57538        -3.39997
   H      -11.23402        10.16613        -1.64984
   H      -12.64782        10.23660         0.38456
   H      -13.58279         9.96089         2.76775
   H      -12.90319         8.84491         5.10986
   H      -10.23563         7.37807         4.69799
   H      -12.91552         8.09607         7.22504
   H      -11.61073         8.63996         8.28340
   H      -12.14339         6.96533         8.34457
   H       -9.84829         5.65492         7.10837
   H       -9.55297         7.01137         8.20659
   H       -8.29476         8.07523         6.43448
   H       -8.38580         5.38152         5.27549
   H       -7.48655         8.11521         4.22353
   H       -7.28167         7.00045         2.13853
   H       -6.68849         2.64734        -0.68459
   H       -5.26883         1.30155         3.92506
   H       -5.78505         0.07639        -1.42872
*
