# ORCA input file
# SCF done       -207.693932054980          0.000476619103
! CAM-B3LYP def2-SVP def2/J RIJCOSX Grid4 TightSCF
%maxcore 5000
%tddft
    Mode sTDDFT
    Ethresh 5.0
    maxcore 5000
end

%pal
  nprocs 6
  end
* xyz 0 1
   C       -8.58125        -1.23247        -1.76049
   C       -7.82837        -2.29463        -2.18260
   C       -8.34251        -3.58813        -2.41116
   N       -8.71537        -4.65100        -2.63076
   C       -6.43917        -2.23801        -2.42392
   N       -5.30649        -2.26334        -2.60827
   C       -9.98933        -1.26429        -1.39321
   C      -10.36648         0.00843        -0.89481
   C      -11.63857         0.28608        -0.45779
   C      -12.58529        -0.74176        -0.51287
   C      -12.20290        -2.00758        -1.02020
   C      -10.91709        -2.28815        -1.46244
   S      -13.53022        -3.12827        -1.00936
   C      -14.56567        -1.90111        -0.32978
   C      -13.95128        -0.71188        -0.12175
  Br      -16.35901        -2.30549         0.03781
   C       -9.21609         0.92816        -0.96900
   O       -9.22151         2.12072        -0.76184
   C       -8.09687         0.11932        -1.52986
   C       -6.92476         0.66630        -1.92862
   C       -6.52023         2.02043        -1.59816
   C       -6.27135         2.91840        -2.64761
   C       -5.96879         4.24169        -2.41732
   C       -5.84362         4.72275        -1.11576
   C       -6.02154         3.84655        -0.07256
   C       -6.36507         2.50328        -0.29639
   N       -6.38206         1.82401         0.90547
   C       -6.60401         0.42359         1.11922
   C       -6.08318         2.65703         1.96007
   O       -5.97362         2.30369         3.10623
   C       -5.89981         4.06349         1.40401
   C       -7.00760         4.98033         1.96812
   C       -8.36135         4.48186         1.44999
   O       -8.88521         3.42336         1.70231
   N       -8.86609         5.44562         0.62519
   C      -10.09706         5.29948        -0.10270
   C       -8.04846         6.56275         0.58438
   C       -8.21347         7.73365        -0.12441
   C       -7.25797         8.75005         0.02719
   C       -6.16171         8.54777         0.87269
   C       -5.98956         7.35523         1.55756
   C       -6.93533         6.36416         1.41319
   C       -7.43209         9.98285        -0.71061
   C       -6.83690        11.15766        -0.42548
   C       -7.02266        12.35089        -1.17922
   O       -7.74867        12.36461        -2.33117
   C       -6.55773        13.62826        -0.94357
   C       -5.76343        14.45124        -0.02920
   O       -5.17420        14.17135         0.98374
   N       -5.81917        15.71920        -0.60144
   C       -6.55579        15.81040        -1.78610
   O       -6.71250        16.82148        -2.42302
   C       -7.03095        14.44717        -1.99887
   C       -7.76158        13.63009        -2.84740
   C       -8.41799        13.91758        -4.06112
   C       -9.01818        12.96104        -4.83037
   C       -9.64726        13.20522        -6.05607
   C      -10.18351        12.21213        -6.84340
   C      -10.81619        12.34743        -8.10076
   C      -11.21820        11.16889        -8.65933
   C      -10.92604        10.03719        -7.87189
   S      -10.13150        10.51856        -6.38838
   C      -11.17277         8.70363        -8.14297
   C      -11.77368         8.11234        -9.27145
   C      -11.84322         6.75082        -9.21122
   C      -11.30880         6.18124        -8.03115
   S      -10.70247         7.46521        -7.00108
   C      -11.26702         4.83485        -7.75303
   C      -10.80007         4.14599        -6.63008
   S      -10.87887         2.38272        -6.69887
   C      -10.22756         2.14892        -5.10615
   C       -9.95711         3.39122        -4.54115
   C      -10.27227         4.49902        -5.38309
   N       -9.97165         5.60305        -4.65823
   N       -9.49881         5.28184        -3.44297
   C       -9.47569         3.97701        -3.34308
   C      -10.03276         0.87231        -4.50769
   C      -10.32546        -0.30312        -5.07047
   H      -11.89154         1.26318        -0.07771
   H      -10.67484        -3.26637        -1.84326
   H      -14.43972         0.15156         0.29142
   H       -6.27443         0.12276        -2.60317
   H       -6.37281         2.55766        -3.66086
   H       -5.82510         4.91109        -3.25057
   H       -5.59299         5.75625        -0.93498
   H       -6.01144        -0.17013         0.41976
   H       -7.66202         0.17127         1.00825
   H       -6.29795         0.20728         2.14366
   H       -4.92619         4.46572         1.69707
   H       -6.96862         4.93402         3.05982
   H      -10.39071         4.25399        -0.02583
   H       -9.94167         5.55825        -1.15063
   H      -10.87744         5.93372         0.32502
   H       -9.06123         7.87838        -0.77522
   H       -5.42043         9.32347         0.97558
   H       -5.12894         7.20952         2.19288
   H       -8.12133         9.94435        -1.54426
   H       -6.18533        11.27674         0.42714
   H       -5.35549        16.51736        -0.19219
   H       -8.39797        14.95199        -4.37004
   H       -8.99268        11.93601        -4.48127
   H       -9.70479        14.22232        -6.41893
   H      -10.95112        13.31248        -8.55630
   H      -11.71150        11.08630        -9.61132
   H      -12.13523         8.70096       -10.09510
   H      -12.26767         6.13269        -9.98259
   H      -11.66112         4.19744        -8.53573
   H      -10.05225         6.57149        -4.91779
   H       -9.14099         3.50215        -2.44372
   H       -9.61397         0.91846        -3.51104
   H      -10.74325        -0.35952        -6.06171
   H      -10.15771        -1.23417        -4.55907
*
