# ORCA input file
# SCF done       -160.627749900277          0.000885311524
! CAM-B3LYP def2-SVP def2/J RIJCOSX Grid4 TightSCF
%maxcore 5000
%tddft
    Mode sTDDFT
    Ethresh 5.0
    maxcore 5000
end

%pal
  nprocs 6
  end
* xyz 0 1
   C       -2.51683         3.06725        -4.53169
   C       -1.95493         1.99958        -3.87616
   C       -0.61642         1.58785        -4.03924
   N        0.46064         1.19890        -4.12600
   C       -2.60867         1.16411        -2.94765
   N       -3.05771         0.44089        -2.17592
   C       -1.80716         3.96424        -5.43924
   C       -2.71167         4.95227        -5.89898
   C       -2.34224         5.95036        -6.76579
   C       -1.00994         5.98242        -7.19377
   C       -0.11341         4.99245        -6.72923
   C       -0.49010         3.97789        -5.85718
   S        1.48177         5.21679        -7.38198
   C        0.92960         6.62008        -8.25631
   C       -0.38087         6.90705        -8.07172
  Br        2.13532         7.57513        -9.33008
   C       -4.04166         4.69688        -5.31363
   O       -5.07868         5.27280        -5.60314
   C       -3.87951         3.54472        -4.42229
   C       -4.87989         2.93931        -3.69568
   C       -6.14441         3.42749        -3.35530
   S       -7.29012         2.26395        -2.68509
   C       -8.50949         3.45588        -2.37491
   C       -8.03955         4.71250        -2.75822
   C       -6.72880         4.69078        -3.31091
   S       -6.22146         6.29766        -3.65507
   C       -7.78014         6.84376        -3.06270
   N       -8.59805         5.94749        -2.65621
   C       -9.74474         3.09587        -1.78903
   C      -10.73784         3.97829        -1.51555
   C      -11.95557         3.57317        -0.89605
   C      -13.02146         4.35096        -0.62376
   C      -13.11579         5.81231        -0.91747
   C      -14.22628         3.75428         0.06062
   N      -14.34387         4.26689         1.40702
   C      -15.25026         5.19007         1.78601
   C      -15.17620         5.91755         2.93391
   C      -16.19734         6.78059         3.36563
   C      -16.13968         7.55287         4.49652
   C      -17.14929         8.40248         5.00805
   C      -16.80886         9.05443         6.15382
   C      -15.50091         8.77099         6.60913
   S      -14.72382         7.62339         5.54457
   C      -14.85171         9.30010         7.70716
   C      -15.35336        10.21256         8.66071
   C      -14.45067        10.56565         9.61587
   C      -13.17713         9.95767         9.46963
   S      -13.18244         8.89649         8.07373
   C      -12.08988        10.16553        10.27604
   C      -10.80970         9.60187        10.14072
   S      -10.32197         8.47647         8.88344
   C       -8.70335         8.34372         9.45240
   C       -8.51795         9.12595        10.56767
   C       -9.70439         9.82512        10.94465
   O       -9.49133        10.58477        12.04078
   C       -8.18649        10.37892        12.36645
   N       -7.67596        11.05824        13.49486
   O       -6.50332        10.86303        13.76098
   O       -8.42627        11.78207        14.11487
   C       -7.54015         9.51335        11.52387
   H       -3.05548         6.68710        -7.10058
   H        0.23121         3.24563        -5.53570
   H       -0.88449         7.73588        -8.53476
   H       -4.68293         1.94312        -3.31996
   H       -8.01886         7.88966        -3.07204
   H       -9.86969         2.04749        -1.55043
   H      -10.58959         5.01446        -1.77821
   H      -12.01554         2.52166        -0.63897
   H      -12.13698         6.27423        -0.99681
   H      -13.68248         6.32160        -0.13864
   H      -13.64061         5.96502        -1.86158
   H      -14.13730         2.66348         0.10310
   H      -15.14081         4.00860        -0.48183
   H      -13.51472         4.18126         1.97857
   H      -16.10540         5.29280         1.13055
   H      -14.30123         5.82579         3.56371
   H      -17.10040         6.83920         2.77177
   H      -18.09943         8.50071         4.51255
   H      -17.45493         9.73560         6.67767
   H      -16.36270        10.58086         8.61813
   H      -14.65044        11.24890        10.42209
   H      -12.20646        10.84406        11.11071
   H       -8.00677         7.71364         8.94084
   H       -6.51568         9.21281        11.59645
*
