# ORCA input file
# SCF done       -187.356490812018          0.000500820897
! CAM-B3LYP def2-SVP def2/J RIJCOSX Grid4 TightSCF
%maxcore 5000
%tddft
    Mode sTDDFT
    Ethresh 5.0
    maxcore 5000
end

%pal
  nprocs 6
  end
* xyz 0 1
   C       11.96933        -5.75297        -8.70918
   C       11.40583        -5.22533        -7.61491
   C       11.98402        -4.28475        -6.69626
   C       11.17656        -3.93173        -5.67408
   C        9.89613        -4.55724        -5.69182
   S        9.76271        -5.61910        -7.08372
   C        8.88013        -4.39788        -4.78741
   C        8.86894        -3.59661        -3.61390
   C        7.71254        -3.65875        -2.91431
   C        6.71519        -4.51694        -3.47288
   S        7.34097        -5.22771        -4.95783
   C        5.46626        -4.66441        -2.95457
   C        4.35151        -5.44230        -3.38736
   S        2.78067        -4.70064        -3.12258
   C        1.98099        -6.04242        -3.81988
   C        2.84977        -7.01946        -4.20275
   C        4.20836        -6.69253        -3.95323
   C        5.29082        -7.70416        -4.15490
   C        4.85012        -8.79971        -5.12192
   C        3.50712        -9.37853        -4.69416
   C        2.41810        -8.31380        -4.84351
   C        1.10019        -8.72490        -4.21907
   O        0.02041        -8.55172        -4.71784
   O        1.28339        -9.27626        -3.00317
   C        0.17720        -9.59726        -2.26201
   C        0.28842       -10.29377        -1.12912
   C       -0.82578       -10.63606        -0.29492
   C       -0.78362       -11.42926         0.81346
   C       -2.04219       -11.60170         1.45786
   C       -3.04872       -10.87406         0.77258
   S       -2.43507       -10.03581        -0.62335
   C       -4.38805       -10.79256         1.13289
   O       -5.12870       -10.01211         0.29594
   C       -6.49176        -9.77114         0.52915
   C       -4.77972       -11.50315         2.27895
   C       -3.77716       -12.24210         2.95636
   C       -2.43692       -12.32148         2.59752
   O       -1.69537       -13.10185         3.43405
   C       -0.34496       -13.38019         3.17011
   S       -4.39658       -13.08191         4.34701
   C       -5.99791       -12.44590         4.03918
   C       -6.03672       -11.65045         2.93340
   C       -7.08332       -12.78295         4.91389
   S       -7.06425       -14.29760         5.77330
   C       -8.56675       -13.93604         6.51394
   C       -9.05751       -12.72321         6.13299
   C       -8.20945       -12.05322         5.21490
   C       -8.51821       -10.67328         4.73025
   C       -9.44735        -9.97626         5.72093
   C      -10.69443       -10.82351         5.93835
   C      -10.35402       -12.14095         6.63930
   C      -11.42886       -13.17751         6.36970
   O      -12.08038       -13.26262         5.36317
   O      -11.53430       -14.02716         7.40922
   C      -12.41173       -15.07510         7.31821
   C      -12.53311       -15.95482         8.32474
   C      -13.42337       -17.05866         8.28502
   C      -13.55816       -17.97240         9.28601
   C      -14.43055       -19.09887         9.30139
   C      -14.35865       -19.84995        10.42656
   C      -13.42405       -19.37292        11.38487
   S      -12.64010       -17.92010        10.78877
   C      -13.12635       -19.91464        12.60872
   C      -13.68794       -21.08518        13.19660
   C      -13.19971       -21.38456        14.41890
   C      -12.20505       -20.46868        14.90290
   S      -11.94038       -19.20579        13.68957
   C      -11.55065       -20.51230        16.07058
   H       12.97086        -5.48363        -8.99478
   H       11.44609        -6.45388        -9.33330
   H       12.98385        -3.91754        -6.84687
   H       11.44853        -3.23949        -4.89679
   H        9.71913        -3.00344        -3.32830
   H        7.52322        -3.12002        -2.00228
   H        5.24174        -4.00705        -2.12126
   H        0.91316        -6.03363        -3.91538
   H        5.52928        -8.14958        -3.18255
   H        6.20089        -7.23497        -4.52463
   H        5.60566        -9.58644        -5.14345
   H        4.76678        -8.38531        -6.12854
   H        3.56283        -9.69819        -3.65229
   H        3.25091       -10.24566        -5.30573
   H        2.22270        -8.12868        -5.90696
   H       -0.76911        -9.25200        -2.65910
   H        1.26252       -10.62932        -0.80116
   H        0.13981       -11.86783         1.14055
   H       -7.08185       -10.68962         0.45563
   H       -6.79897        -9.08767        -0.26226
   H       -6.65682        -9.29272         1.49923
   H        0.27373       -12.48102         3.24883
   H       -0.21384       -13.84404         2.18806
   H       -0.04333       -14.08710         3.94293
   H       -6.95687       -11.22586         2.58683
   H       -9.00245       -14.63863         7.19643
   H       -9.01430       -10.72668         3.75568
   H       -7.59079       -10.10901         4.60654
   H       -9.72858        -8.99564         5.33413
   H       -8.92901        -9.83107         6.67122
   H      -11.15104       -11.05410         4.97330
   H      -11.42739       -10.27852         6.53556
   H      -10.27687       -12.00344         7.72301
   H      -12.97583       -15.13022         6.39614
   H      -11.92851       -15.82677         9.21224
   H      -14.03299       -17.18320         7.40061
   H      -15.07968       -19.30584         8.46875
   H      -14.94568       -20.73346        10.60323
   H      -14.43704       -21.66303        12.68460
   H      -13.50254       -22.22810        15.01378
   H      -11.74238       -21.29932        16.77843
   H      -10.81870       -19.77202        16.33666
*
