# ORCA input file
# SCF done       -171.399664493311          0.000604429282
! CAM-B3LYP def2-SVP def2/J RIJCOSX Grid4 TightSCF
%maxcore 5000
%tddft
    Mode sTDDFT
    Ethresh 5.0
    maxcore 5000
end

%pal
  nprocs 6
  end
* xyz 0 1
   C        3.74212         4.90353        -6.60358
   C        4.97158         5.31265        -6.96947
   S        5.02879         6.96269        -7.48928
   C        3.31761         7.12946        -7.20399
   C        2.74849         5.92734        -6.72296
   C        1.38309         5.84834        -6.43331
   C        0.81502         4.55961        -5.91331
   C        1.04312         4.42118        -4.40673
   C        0.61486         6.99954        -6.62850
   C        1.22821         8.17785        -7.12470
   C        2.57872         8.28156        -7.41804
   C        3.18269         9.53154        -7.97885
   C        3.10171         9.52990        -9.50624
   S        0.08517         9.47974        -7.32761
   C       -1.18540         8.47349        -6.74862
   C       -0.79314         7.22253        -6.40997
   C       -1.77287         6.25959        -5.87724
   C       -2.04495         6.15048        -4.55522
   O       -2.99837         5.27014        -4.05345
   C       -3.64019         4.53402        -5.00423
   C       -3.36314         4.67339        -6.39730
   C       -4.11055         3.84767        -7.16984
   S       -5.17153         2.88430        -6.21182
   C       -4.59358         3.60445        -4.75344
   O       -2.43016         5.55303        -6.86470
   C       -1.35162         6.91551        -3.56569
   C       -1.59496         6.82345        -2.23740
   C       -0.90310         7.55442        -1.24672
   S        0.40406         8.66520        -1.60980
   C        0.69035         9.08423         0.06376
   C       -0.20773         8.38568         0.86546
   C       -1.08477         7.54012         0.12777
   N       -1.88392         6.93419         1.04262
   N       -1.57968         7.33166         2.29115
   C       -0.59421         8.18788         2.21672
   C        1.70063         9.98344         0.47864
   C        2.56880        10.59495        -0.35924
   C        3.64709        11.47358        -0.00588
   C        3.78149        12.26552         1.07031
   C        2.74032        12.48295         2.12253
   C        5.05320        13.06578         1.25177
   N        4.86614        14.47319         0.97219
   C        4.91775        15.00294        -0.25067
   C        4.67471        16.31837        -0.52819
   C        4.79345        16.82377        -1.82722
   C        4.63772        18.14410        -2.18172
   C        4.75712        18.69906        -3.50862
   C        4.94263        18.01470        -4.68640
   C        5.04693        18.62699        -5.95076
   N        5.14069        19.06087        -7.01036
   C        5.04188        16.61557        -4.81296
   N        5.12744        15.48520        -5.00376
   C        4.62352        20.15018        -3.39576
   C        4.38979        20.47936        -2.03920
   C        4.37368        19.23875        -1.23304
   O        4.18739        19.17101        -0.03208
   C        4.22645        21.77209        -1.60763
   C        4.29995        22.79341        -2.56131
   C        4.53386        22.45545        -3.91381
   C        4.69668        21.14625        -4.35080
   S        4.59270        23.86907        -4.92499
   C        4.30677        24.87935        -3.53335
   C        4.17315        24.19740        -2.37181
  Br        4.21322        26.74168        -3.74494
   H        3.53860         3.90694        -6.25640
   H        5.88151         4.74441        -6.97336
   H        1.29169         3.72342        -6.42889
   H       -0.25006         4.50616        -6.12745
   H        2.10587         4.45488        -4.17829
   H        0.63965         3.47603        -4.04983
   H        0.55345         5.23130        -3.87101
   H        4.22874         9.59684        -7.67207
   H        2.64807        10.40041        -7.58893
   H        3.63947         8.67607        -9.91222
   H        3.54143        10.43973        -9.90584
   H        2.06481         9.47381        -9.82961
   H       -2.17703         8.87742        -6.67902
   H       -4.09901         3.75429        -8.23540
   H       -4.98864         3.30372        -3.80598
   H       -0.59762         7.59634        -3.93205
   H       -2.36067         6.14547        -1.88589
   H       -2.62556         6.27118         0.89724
   H       -0.19350         8.63221         3.10511
   H        1.77266        10.11532         1.54784
   H        2.49515        10.35705        -1.41400
   H        4.44989        11.48739        -0.73468
   H        2.87451        11.78318         2.94877
   H        1.74209        12.34570         1.71426
   H        2.81431        13.48979         2.53020
   H        5.83115        12.68509         0.58548
   H        5.40165        12.97107         2.28437
   H        4.54065        15.06718         1.72110
   H        5.20351        14.32365        -1.04408
   H        4.40191        16.99558         0.26666
   H        5.04300        16.11095        -2.60226
   H        4.05045        21.99062        -0.56595
   H        4.87526        20.94228        -5.39314
   H        3.99369        24.66244        -1.41966
*
