# ORCA input file
# SCF done       -160.344804745870          0.000571852237
! CAM-B3LYP def2-SVP def2/J RIJCOSX Grid4 TightSCF
%maxcore 5000
%tddft
    Mode sTDDFT
    Ethresh 5.0
    maxcore 5000
end

%pal
  nprocs 6
  end
* xyz 0 1
   C        1.16078         1.83576        -4.27581
   S        2.20868         1.90514        -5.65045
   C        0.87396         1.86647        -6.75577
   C       -0.30031         1.80387        -6.08918
   C       -0.14288         1.78574        -4.66100
   C       -1.44357         1.71887        -4.06383
   C       -2.40377         1.69522        -5.04232
   C       -1.74485         1.74780        -6.39706
   O       -2.27410         1.74547        -7.48043
   C       -3.81106         1.63326        -4.84861
   C       -4.48357         1.55896        -3.64623
   C       -5.87909         1.48991        -3.89608
   C       -6.04023         1.55930        -5.36388
   C       -4.80484         1.64577        -5.91817
   C       -7.24585         1.63557        -6.07256
   N       -8.20897         1.74862        -6.68814
   C       -6.89430         1.37477        -2.96958
   C       -8.27396         1.17348        -3.22409
   C       -8.96869         1.18012        -2.02403
   C       -8.00085         1.37463        -0.95789
   C       -6.75880         1.46470        -1.50737
   C       -5.57654         1.63799        -0.78103
   N       -4.62298         1.77836        -0.15510
   C      -10.37334         1.00840        -1.94790
   N      -11.21163         1.37643        -0.92617
   C      -10.87299         2.01006         0.32610
   C      -10.63697         0.97986         1.42838
   C      -12.56011         1.10859        -1.22994
   O      -13.47698         1.37997        -0.48043
   C      -12.52255         0.50293        -2.54254
   C      -11.17859         0.45997        -2.95727
   C      -11.12527        -0.21304        -4.24343
   O      -10.20447        -0.52914        -4.96147
   N      -12.47266        -0.50474        -4.53237
   C      -12.84397        -1.11943        -5.78529
   C      -13.33157        -0.08740        -6.79837
   C      -13.32112        -0.08152        -3.54151
   C      -14.71887        -0.23723        -3.58167
   C      -15.54298         0.21166        -2.58709
   C      -16.94818         0.08546        -2.60602
   C      -17.76462        -0.49075        -3.56595
   C      -19.11782        -0.37623        -3.16150
   C      -19.10086         0.32255        -1.86071
   C      -17.80747         0.58834        -1.54363
   C      -20.21280         0.65940        -1.08194
   N      -21.11410         0.94487        -0.42843
   C      -20.23775        -0.82059        -3.83494
   C      -21.59227        -0.69938        -3.42847
   C      -22.40594        -1.27221        -4.38229
   C      -21.55597        -1.78466        -5.44535
   C      -20.25965        -1.52169        -5.13284
   C      -19.15322        -1.86362        -5.91593
   N      -18.25596        -2.15259        -6.57376
   C      -23.82004        -1.36859        -4.37455
   S      -24.66115        -2.15999        -5.71203
   C      -26.20686        -1.88016        -5.00011
   C      -26.09229        -1.22634        -3.82027
   C      -24.74415        -0.92903        -3.45161
   C      -24.77451        -0.23514        -2.18223
   C      -26.05317        -0.10250        -1.77527
   C      -26.98949        -0.70666        -2.75572
   O      -28.19430        -0.76179        -2.70026
   H        1.58137         1.83722        -3.29010
   H        1.05807         1.89274        -7.81145
   H       -1.62421         1.69435        -3.00417
   H       -4.03944         1.52453        -2.67153
   H       -4.56854         1.72234        -6.96231
   H       -8.70319         1.03200        -4.19565
   H       -8.20675         1.39305         0.09476
   H      -11.72997         2.63296         0.60001
   H      -10.00353         2.65378         0.17954
   H      -11.55514         0.42887         1.61613
   H      -10.33870         1.48048         2.34547
   H       -9.86352         0.26859         1.14582
   H      -13.60533        -1.88320        -5.60663
   H      -11.93908        -1.60309        -6.16325
   H      -14.20212         0.44736        -6.42459
   H      -13.59997        -0.58476        -7.72585
   H      -12.54220         0.63125        -7.00433
   H      -15.14616        -0.72766        -4.44388
   H      -15.10911         0.70289        -1.72589
   H      -17.44660        -0.95501        -4.47774
   H      -17.44973         1.08714        -0.66189
   H      -21.91037        -0.23292        -2.52017
   H      -21.91702        -2.28548        -6.32480
   H      -27.09084        -2.21871        -5.50400
   H      -23.90847         0.11747        -1.65143
   H      -26.39356         0.36902        -0.87174
*
