# ORCA input file
# SCF done       -172.831023918426          0.000807602700
! CAM-B3LYP def2-SVP def2/J RIJCOSX Grid4 TightSCF
%maxcore 5000
%tddft
    Mode sTDDFT
    Ethresh 5.0
    maxcore 5000
end

%pal
  nprocs 6
  end
* xyz 0 1
   C        6.94310         0.26129        -3.86430
   S        5.48254         0.88846        -3.16123
   C        5.71654         2.34191        -4.07943
   C        6.88595         2.22871        -4.81823
   N        7.53780         1.05075        -4.67329
   C        7.51725         3.30879        -5.60571
   O        7.25377         4.48413        -5.49362
   O        8.43981         2.82735        -6.43084
   C        9.14054         3.78287        -7.21175
   C        4.75965         3.40580        -4.00927
   C        4.42807         4.19612        -5.04684
   C        3.41320         5.20702        -4.96601
   C        2.34900         5.32027        -5.84137
   N        2.09905         4.53136        -6.97613
   O        2.86559         3.61582        -7.23202
   O        1.12211         4.81453        -7.64923
   C        1.42064         6.31310        -5.35720
   C        1.92881         6.84943        -4.22738
   C        3.23380         6.27165        -3.96987
   C        4.17971         6.73021        -3.08038
   C        5.41422         6.09065        -2.72033
   C        5.82476         6.57848        -1.52158
   C        4.92530         7.61481        -1.09950
   N        5.12349         8.35062         0.07462
   O        4.34662         9.25782         0.34568
   O        6.06693         8.03367         0.78166
   C        3.97772         7.83119        -2.10239
   C        3.13443         8.94874        -2.19709
   C        2.73330         9.53206        -3.37308
   C        1.91876        10.66601        -3.43727
   S        1.15814        11.37410        -2.01978
   C        0.35632        12.63080        -2.92698
   C        0.68066        12.50945        -4.28545
   C        1.54070        11.41159        -4.55650
   N        1.78199        11.37814        -5.88883
   C        1.10187        12.42693        -6.47655
   C        1.15911        12.66767        -7.85694
   N        1.20694        12.87328        -8.98425
   C        0.41339        13.14307        -5.51864
   C       -0.49466        13.57492        -2.33120
   C       -0.80993        13.58871        -1.00641
   C       -1.68530        14.50510        -0.39029
   S       -2.46412        15.80934        -1.22871
   C       -3.28449        16.31884         0.21699
   C       -4.20422        17.47036         0.26609
   O       -4.75962        17.79427         1.27928
   O       -4.39279        18.14151        -0.88081
   C       -2.97083        15.52076         1.28938
   C       -2.07023        14.50012         0.95494
   O       -1.54582        13.53288         1.75905
   C       -1.90293        13.41027         3.03326
   S       -1.13153        12.11674         3.94190
   C       -2.07293        12.61331         5.32666
   C       -2.86600        13.68839         4.97788
   N       -2.74777        14.10972         3.69060
   C       -3.81206        14.40391         5.85618
   O       -4.02452        14.13823         7.01539
   O       -4.40687        15.39290         5.19250
   C       -5.34830        16.16678         5.92021
   C       -1.98972        11.96106         6.60122
   C       -1.19296        10.92755         6.86134
   H        7.29529        -0.71977        -3.61616
   H        9.84581         3.21954        -7.81664
   H        9.66535         4.49045        -6.56635
   H        8.44610         4.33699        -7.84724
   H        4.23534         3.50633        -3.06682
   H        4.83330         3.99451        -6.02836
   H        0.48055         6.52313        -5.82997
   H        1.44408         7.56572        -3.59570
   H        5.90996         5.34119        -3.30248
   H        6.68781         6.28293        -0.95539
   H        2.90519         9.46111        -1.27047
   H        3.09042         9.13742        -4.31599
   H        2.35225        10.71431        -6.38618
   H       -0.19649        14.00544        -5.69617
   H       -0.92701        14.31701        -2.99044
   H       -0.38359        12.84198        -0.34888
   H       -3.88994        17.78462        -1.62522
   H       -3.38176        15.67065         2.27159
   H       -4.87305        16.62326         6.79087
   H       -6.17383        15.53827         6.26070
   H       -5.70378        16.92858         5.23134
   H       -2.63887        12.38181         7.35634
   H       -0.54534        10.50905         6.10749
   H       -1.16539        10.47122         7.83447
*
