# ORCA input file
# SCF done       -240.107312074745          0.000617307652
! CAM-B3LYP def2-SVP def2/J RIJCOSX Grid4 TightSCF
%maxcore 5000
%tddft
    Mode sTDDFT
    Ethresh 5.0
    maxcore 5000
end

%pal
  nprocs 6
  end
* xyz 0 1
   C        7.26629        -4.84699        11.75260
   C        6.21050        -5.25589        12.51924
   F        6.33094        -5.27158        13.85778
   C        4.99023        -5.66358        11.96212
   C        4.84691        -5.65236        10.60273
   C        5.90264        -5.23881         9.76416
   C        7.13615        -4.82680        10.35032
   C        8.20713        -4.40159         9.53082
   C        8.04554        -4.38958         8.17185
   C        6.81596        -4.81806         7.58955
   C        5.76562        -5.23088         8.35836
   C        6.92346        -4.76027         6.12246
   O        6.07302        -4.97280         5.29106
   C        8.35756        -4.43424         5.85771
   C        8.95424        -3.99680         7.10428
   C       10.03319        -3.16287         7.23492
   C       10.49741        -2.66745         8.47203
   N       10.91374        -2.22985         9.44728
   C       10.75671        -2.64450         6.14714
   N       11.35848        -2.15724         5.29765
   C        8.88241        -4.70460         4.63910
   C       10.24657        -4.83259         4.24729
   C       11.33899        -5.32421         4.96409
   N       11.36567        -5.96625         6.21146
   O       10.31709        -6.13054         6.82333
   O       12.45117        -6.33232         6.62885
   C       12.52687        -5.20066         4.16684
   C       12.20088        -4.57725         3.00784
   C       10.77991        -4.35126         2.98125
   C       10.09696        -3.79474         1.90308
   C        8.81214        -4.10971         1.40645
   C        8.66567        -3.56694         0.14778
   C        9.82002        -2.82097        -0.17518
   N        9.98565        -2.13139        -1.38287
   O        9.04858        -2.12200        -2.16136
   O       11.06436        -1.59390        -1.60755
   C       10.71479        -2.87751         0.91983
   C       11.80847        -2.04912         1.11197
   C       12.44315        -1.80452         2.32451
   C       13.61157        -1.08221         2.49120
   S       14.01777        -0.54024         4.09772
   C       15.36323         0.39468         3.53624
   C       15.58587         0.18500         2.14641
   C       14.60160        -0.65221         1.55261
   C       14.70840        -0.99752         0.20490
   C       15.74039        -0.49143        -0.56618
   C       15.84870        -0.84507        -2.01177
   C       16.71551         0.31632         0.03625
   C       16.66248         0.63554         1.37158
   C       16.03098         1.23769         4.43377
   C       16.74898         2.34998         4.06453
   C       17.37561         3.25221         4.94144
   C       17.41381         4.63941         4.73539
   N       16.98700         5.36538         3.60975
   O       17.06930         6.57917         3.66931
   O       16.57709         4.75684         2.63117
   C       17.86370         5.28402         5.92801
   C       18.20311         4.33077         6.83725
   C       18.03633         3.03051         6.24510
   C       18.61595         1.86108         6.69065
   C       18.40320         0.52557         6.21243
   C       18.91824        -0.34536         7.11554
   C       19.55225         0.38868         8.17771
   N       20.18425        -0.31315         9.22451
   O       20.38915         0.25835        10.28468
   O       20.45305        -1.47958         9.02092
   C       19.49120         1.74936         7.88875
   C       20.29884         2.82390         8.33353
   C       21.07043         2.88500         9.45506
   C       21.94775         3.96528         9.70969
   C       22.97091         3.95795        10.60779
   C       23.56589         5.23067        11.10771
   O       23.42131         6.33042        10.62743
   C       24.29819         4.85160        12.32941
   C       24.92539         5.65712        13.23663
   C       25.55149         5.07353        14.36002
   C       25.51066         3.65769        14.52625
   C       26.13128         3.08396        15.65265
   C       26.75909         3.89368        16.55840
   C       26.81092         5.28704        16.41217
   C       26.21335         5.86090        15.32484
   F       27.35247         3.34830        17.63372
   C       24.85907         2.84611        13.56813
   C       24.26738         3.43341        12.48290
   C       23.57067         2.85937        11.33549
   C       23.66729         1.56514        10.89759
   C       23.23519         1.14200         9.62223
   N       22.96236         0.78268         8.56701
   C       24.33158         0.54784        11.61538
   N       24.86303        -0.30236        12.17265
   H        8.19062        -4.53930        12.21583
   H        4.19312        -5.97758        12.61718
   H        3.91706        -5.96310        10.15072
   H        9.13684        -4.11358         9.99553
   H        4.84188        -5.55129         7.90012
   H        8.14096        -4.89186         3.87133
   H       13.48696        -5.56549         4.47619
   H       12.85949        -4.37392         2.18620
   H        8.10555        -4.77478         1.86203
   H        7.82334        -3.68562        -0.50818
   H       12.10316        -1.46586         0.24934
   H       11.95342        -2.12442         3.23705
   H       14.00839        -1.67907        -0.24812
   H       16.56908        -1.65322        -2.14330
   H       16.19854         0.00712        -2.58965
   H       14.89077        -1.17412        -2.40531
   H       17.53983         0.67343        -0.56235
   H       17.46146         1.20267         1.81885
   H       15.84675         1.05949         5.48631
   H       16.66923         2.68514         3.03846
   H       17.89470         6.35006         6.05060
   H       18.51439         4.51249         7.84617
   H       17.89589         0.25954         5.30818
   H       18.89498        -1.41826         7.08101
   H       20.39214         3.64166         7.62963
   H       21.00589         2.10213        10.19748
   H       21.77103         4.90703         9.19940
   H       24.94315         6.72786        13.09868
   H       26.11385         2.01493        15.79607
   H       27.32013         5.87450        17.15957
   H       26.24008         6.93171        15.19038
   H       24.83481         1.77884        13.72164
*
