# ORCA input file
# SCF done       -216.020246572612          0.000575831114
! CAM-B3LYP def2-SVP def2/J RIJCOSX Grid4 TightSCF
%maxcore 5000
%tddft
    Mode sTDDFT
    Ethresh 5.0
    maxcore 5000
end

%pal
  nprocs 6
  end
* xyz 0 1
   C        1.90507         0.75818        -1.39436
   C        3.25886         0.58367        -1.32757
   F        4.07868         1.63790        -1.41385
   C        3.80967        -0.70470        -1.16836
   F        5.13959        -0.84547        -1.10658
   C        2.99813        -1.80075        -1.07991
   C        1.59881        -1.65396        -1.14780
   C        1.04032        -0.35167        -1.30554
   C       -0.36055        -0.17925        -1.37253
   C       -1.17975        -1.27496        -1.28226
   C       -0.61228        -2.57156        -1.12998
   C        0.73748        -2.76953        -1.06766
   C       -1.68579        -3.57355        -1.07813
   O       -1.56536        -4.77656        -1.16378
   C       -2.96112        -2.79588        -1.10239
   C       -2.63386        -1.39461        -1.30619
   C       -3.52072        -0.36111        -1.43867
   C       -4.92570        -0.49696        -1.43620
   N       -6.07265        -0.53923        -1.44384
   C       -3.14456         0.98949        -1.60608
   N       -2.90239         2.10136        -1.75308
   C       -4.18729        -3.37120        -1.03210
   C       -4.37966        -4.69834        -0.54212
   S       -5.57253        -5.78682        -1.21544
   C       -5.16336        -7.06736        -0.09206
   C       -4.22224        -6.61231         0.79598
   C       -3.76144        -5.30341         0.52423
   C       -2.73255        -4.95145         1.51953
   O       -2.09198        -3.94091         1.65996
   N       -2.63934        -6.08051         2.31797
   C       -3.48313        -7.13296         1.95815
   O       -3.54352        -8.19138         2.52185
   C       -5.79435        -8.35137        -0.19611
   C       -6.53626        -8.96913         0.77022
   C       -7.19725       -10.10649         0.19760
   O       -7.92379       -10.85995         1.01607
   C       -8.64498       -11.98871         0.56642
   C       -6.85769       -10.19829        -1.15992
   C       -5.96080        -9.08929        -1.44311
   C       -5.34639        -8.72936        -2.61970
   C       -4.12432        -7.99424        -2.73554
   C       -3.86078        -7.81644        -4.06309
   O       -2.82682        -7.24768        -4.67473
   C       -1.77812        -6.76435        -3.85851
   C       -4.96854        -8.38374        -4.84342
   C       -5.82744        -8.96083        -3.99044
   C       -7.14975       -11.27166        -2.04587
   C       -6.35123       -11.69550        -3.06194
   C       -6.70988       -12.72897        -3.95509
   S       -5.59272       -13.16657        -5.22580
   C       -6.64066       -14.42020        -5.87187
   C       -7.80445       -14.44786        -5.12856
   C       -7.85106       -13.51344        -4.06872
   C       -9.13961       -13.65791        -3.38930
   O       -9.60565       -13.09192        -2.42708
   N       -9.80479       -14.64547        -4.10592
   C       -9.09134       -15.15988        -5.17434
   O       -9.50165       -15.99787        -5.94002
   C       -6.22699       -15.11258        -7.03210
   C       -6.63486       -16.30099        -7.55533
   C       -6.35039       -16.56011        -9.00065
   O       -5.59559       -15.93490        -9.70724
   C       -7.22449       -17.68907        -9.36904
   C       -7.46665       -18.22191       -10.60262
   C       -8.39624       -19.27937       -10.72187
   C       -9.06039       -19.76225        -9.55658
   C       -9.99761       -20.80683        -9.68606
   C      -10.26205       -21.34760       -10.91301
   C       -9.60351       -20.87055       -12.06410
   C       -8.68938       -19.85872       -11.97192
   F       -9.88346       -21.41844       -13.25465
   F      -11.15375       -22.33997       -11.03392
   C       -8.78053       -19.19768        -8.29095
   C       -7.87075       -18.17955        -8.19893
   C       -7.39619       -17.41817        -7.04716
   C       -7.48563       -17.82724        -5.74351
   C       -6.87537       -17.15415        -4.66982
   N       -6.39302       -16.63360        -3.76683
   C       -8.15609       -18.99659        -5.32899
   N       -8.68315       -19.93605        -4.93373
   H        1.50067         1.75104        -1.51507
   H        3.43485        -2.77960        -0.95829
   H       -0.75046         0.81840        -1.49380
   H        1.13992        -3.76408        -0.95075
   H       -5.07743        -2.82870        -1.32134
   H       -2.00061        -6.14336         3.09830
   H       -6.65548        -8.65972         1.79031
   H       -9.11056       -12.40507         1.45880
   H       -7.97931       -12.73343         0.12347
   H       -9.42079       -11.71828        -0.15219
   H       -3.48248        -7.74635        -1.91326
   H       -1.06516        -6.28954        -4.52935
   H       -1.29147        -7.58674        -3.32760
   H       -2.13769        -6.03804        -3.12498
   H       -5.03190        -8.31730        -5.91205
   H       -6.77002        -9.41540        -4.22375
   H       -8.07278       -11.80796        -1.89219
   H       -5.37765       -11.25346        -3.21788
   H      -10.73560       -14.95745        -3.86832
   H       -5.50752       -14.58005        -7.64969
   H       -6.96250       -17.83814       -11.47651
   H      -10.50882       -21.18486        -8.81457
   H       -8.19486       -19.50417       -12.86269
   H       -9.30683       -19.56912        -7.42664
*
