# ORCA input file
# SCF done       -247.754589804106          0.000596498486
! CAM-B3LYP def2-SVP def2/J RIJCOSX Grid4 TightSCF
%maxcore 5000
%tddft
    Mode sTDDFT
    Ethresh 5.0
    maxcore 5000
end

%pal
  nprocs 6
  end
* xyz 0 1
   C       -9.13247        -0.22139        -1.28419
   C       -8.15962        -0.03990        -2.22694
   F       -7.76171         1.19486        -2.55493
   C       -7.56343        -1.14691        -2.86487
   F       -6.61283        -0.93984        -3.78484
   C       -7.94934        -2.42000        -2.55153
   C       -8.94978        -2.63978        -1.58461
   C       -9.55144        -1.52149        -0.93697
   C      -10.55032        -1.71829         0.04356
   C      -10.93238        -2.99331         0.36783
   C      -10.33584        -4.10467        -0.29257
   C       -9.37015        -3.94456        -1.24509
   C      -10.92805        -5.35585         0.21204
   O      -10.70991        -6.47813        -0.19655
   C      -11.91943        -4.93987         1.23642
   C      -11.88795        -3.49503         1.34837
   C      -12.54358        -2.75158         2.29238
   C      -13.31548        -3.30709         3.33591
   N      -13.90347        -3.70485         4.23773
   C      -12.47404        -1.34517         2.37759
   N      -12.45423        -0.20286         2.48443
   C      -12.81700        -5.78980         1.80906
   C      -12.68841        -7.20416         1.81567
   C      -13.67952        -8.14266         1.54629
   N      -15.00546        -7.85242         1.18147
   O      -15.77006        -8.78925         1.03998
   O      -15.31207        -6.68007         1.02972
   C      -13.12246        -9.45926         1.60293
   C      -11.79213        -9.34585         1.87055
   C      -11.46199        -7.95681         2.02834
   C      -10.25771        -7.43181         2.48184
   C      -10.08697        -6.32152         3.33865
   C       -8.77204        -6.26048         3.73874
   C       -8.04022        -7.28785         3.09354
   N       -6.66586        -7.47859         3.26090
   O       -6.13087        -8.43223         2.70384
   O       -6.06569        -6.68785         3.96940
   C       -8.91749        -8.01346         2.25829
   C       -8.55478        -8.94269         1.29464
   C       -9.36359        -9.36686         0.25150
   C       -9.13510       -10.42600        -0.61470
   S      -10.30068       -10.64274        -1.89839
   C       -9.51027       -12.04648        -2.51282
   C       -8.35119       -12.34457        -1.75601
   C       -8.14475       -11.45190        -0.66579
   C       -7.06541       -11.66900         0.19699
   C       -6.18651       -12.70969        -0.02969
   C       -5.03057       -12.94308         0.88485
   C       -6.39344       -13.57008        -1.12323
   C       -7.45656       -13.40491        -1.97066
   C      -10.01893       -12.80342        -3.58400
   C      -11.18075       -12.52704        -4.23715
   C      -11.75225       -13.30374        -5.27852
   S      -12.83329       -12.51890        -6.38687
   C      -13.02293       -13.94931        -7.34387
   C      -12.26240       -14.98727        -6.81883
   C      -11.58952       -14.64251        -5.62724
   C      -10.94543       -15.65105        -4.72054
   F      -11.12922       -15.33782        -3.42283
   F      -11.46077       -16.87284        -4.85927
   F       -9.61527       -15.75929        -4.88804
   C      -12.10584       -16.31529        -7.50407
   F      -12.19752       -16.21249        -8.84486
   F      -10.91396       -16.86932        -7.27627
   F      -13.04518       -17.20474        -7.14574
   C      -13.85756       -13.96637        -8.49351
   C      -14.50377       -12.88388        -8.98511
   C      -15.31670       -12.90913       -10.15299
   C      -15.24444       -13.72719       -11.23435
   C      -16.42984       -13.79963       -12.14770
   O      -17.36501       -13.03695       -12.16423
   C      -16.22366       -15.01486       -12.95445
   C      -17.07538       -15.61097       -13.84051
   C      -16.67336       -16.80306       -14.48229
   C      -15.39654       -17.36273       -14.18251
   C      -15.00567       -18.55823       -14.81881
   C      -15.84036       -19.16658       -15.71380
   C      -17.10217       -18.61102       -16.01108
   C      -17.51129       -17.45442       -15.40869
   F      -17.89865       -19.22946       -16.89076
   F      -15.46741       -20.29961       -16.31919
   C      -14.53501       -16.72133       -13.26390
   C      -14.93772       -15.55589       -12.66733
   C      -14.25694       -14.67651       -11.71884
   C      -12.90102       -14.63284       -11.53811
   C      -12.22473       -13.67439       -10.75806
   N      -11.62162       -12.91320       -10.14644
   C      -11.99894       -15.51181       -12.17786
   N      -11.22556       -16.19213       -12.68197
   H       -9.57673         0.63642        -0.80399
   H       -7.48302        -3.25606        -3.04877
   H      -10.99105        -0.85370         0.51315
   H       -8.92957        -4.80263        -1.72981
   H      -13.72377        -5.39143         2.25037
   H      -13.69142       -10.35620         1.45107
   H      -11.10621       -10.15154         2.05028
   H      -10.88482        -5.71030         3.71591
   H       -8.34110        -5.56457         4.43440
   H       -7.52817        -9.27602         1.34402
   H      -10.25554        -8.78514         0.05395
   H       -6.90519       -11.03883         1.05456
   H       -5.20333       -13.84001         1.47996
   H       -4.88693       -12.10351         1.55927
   H       -4.11803       -13.10010         0.31292
   H       -5.69975       -14.38112        -1.28593
   H       -7.60342       -14.08265        -2.79631
   H       -9.42278       -13.65245        -3.87850
   H      -11.71016       -11.61386        -3.99628
   H      -13.99528       -14.91959        -8.98174
   H      -14.45576       -11.94669        -8.44518
   H      -16.14265       -12.20381       -10.17781
   H      -18.04266       -15.17914       -14.04732
   H      -14.04239       -18.99461       -14.60567
   H      -18.47960       -17.04274       -15.64649
   H      -13.58127       -17.17399       -13.04506
*
