# ORCA input file
# SCF done       -238.409668136068          0.000884805399
! CAM-B3LYP def2-SVP def2/J RIJCOSX Grid4 TightSCF
%maxcore 5000
%tddft
    Mode sTDDFT
    Ethresh 5.0
    maxcore 5000
end

%pal
  nprocs 6
  end
* xyz 0 1
   C      -10.21008        -0.22131         1.47058
   C       -8.95497        -0.28320         2.00751
   F       -8.38942         0.81379         2.52744
   C       -8.24025        -1.49795         2.02133
   F       -7.01104        -1.52981         2.55426
   C       -8.79086        -2.63419         1.49856
   C      -10.08314        -2.60351         0.93897
   C      -10.80588        -1.37513         0.92255
   C      -12.10219        -1.31957         0.36256
   C      -12.65626        -2.45730        -0.16186
   C      -11.93360        -3.68347        -0.13214
   C      -10.67863        -3.76546         0.39962
   C      -12.75572        -4.76091        -0.72015
   O      -12.45242        -5.92955        -0.82398
   C      -14.04913        -4.11649        -1.06723
   C      -13.94171        -2.69426        -0.80599
   C      -14.83998        -1.74056        -1.20141
   C      -15.97995        -2.01725        -1.98715
   N      -16.88623        -2.17312        -2.67373
   C      -14.69468        -0.36266        -0.93820
   N      -14.62105         0.76610        -0.74399
   C      -15.19392        -4.79356        -1.35267
   C      -15.28112        -6.17432        -1.67951
   C      -16.18247        -7.08320        -1.13288
   N      -17.13984        -6.79897        -0.14688
   O      -17.91653        -7.68581         0.15989
   O      -17.14288        -5.67945         0.34458
   C      -15.93108        -8.38610        -1.66629
   C      -14.86909        -8.29908        -2.51452
   C      -14.42751        -6.93507        -2.57897
   C      -13.50086        -6.39941        -3.46325
   C      -13.52120        -5.10183        -4.02471
   C      -12.57983        -5.04136        -5.01649
   C      -11.87949        -6.28086        -5.09693
   N      -10.92182        -6.46793        -6.08433
   O      -10.52585        -5.48409        -6.69392
   O      -10.52799        -7.60571        -6.35633
   C      -12.38086        -7.14100        -4.08975
   C      -11.91678        -8.31453        -3.49971
   C      -10.88623        -9.12547        -3.93827
   C      -10.54356       -10.33938        -3.33968
   C      -10.89670       -10.79697        -2.06664
   C      -10.30940       -12.04998        -1.82374
   O      -10.58242       -12.67141        -0.67983
   C      -10.00580       -13.92083        -0.36669
   C       -9.56817       -12.43735        -2.97325
   C       -9.65339       -11.35089        -3.91436
   C       -8.92457       -11.24491        -5.08507
   C       -9.18333       -10.46294        -6.23327
   C       -8.11572       -10.59653        -7.09398
   O       -7.89415       -10.05401        -8.26985
   C       -8.85987        -9.14534        -8.77640
   C       -7.11803       -11.48217        -6.47610
   C       -7.60625       -11.89424        -5.30019
   C       -9.04295       -13.71810        -3.32289
   C       -9.16069       -14.19396        -4.58854
   C       -8.69044       -15.43305        -5.10341
   S       -9.42902       -15.99184        -6.57520
   C       -8.45650       -17.41572        -6.59965
   C       -8.68718       -18.36090        -7.70337
   O       -9.55739       -18.18845        -8.51195
   O       -7.87410       -19.42820        -7.76250
   C       -7.59639       -17.45515        -5.52980
   C       -7.71619       -16.33677        -4.68389
   O       -6.91181       -16.17692        -3.57208
   C       -5.66081       -16.60685        -3.73375
   C       -4.77939       -17.04378        -2.80406
   C       -3.56452       -17.73791        -3.32042
   O       -3.18668       -17.75566        -4.46916
   C       -3.00025       -18.44721        -2.16050
   C       -1.93339       -19.29849        -2.11461
   C       -1.59286       -19.90712        -0.88623
   C       -2.36810       -19.61983         0.27548
   C       -2.02755       -20.23648         1.49632
   C       -0.96801       -21.09765         1.56090
   C       -0.20188       -21.38083         0.41111
   C       -0.50634       -20.79779        -0.78731
   F        0.82784       -22.22920         0.50355
   F       -0.64712       -21.68303         2.71941
   C       -3.46273       -18.72914         0.19925
   C       -3.77429       -18.14850        -1.00228
   C       -4.81367       -17.19112        -1.36400
   C       -5.58614       -16.47365        -0.49384
   C       -6.37955       -15.38849        -0.90073
   N       -6.98724       -14.45169        -1.16698
   C       -5.60653       -16.66776         0.90353
   N       -5.67932       -16.79869         2.04097
   H      -10.74336         0.71645         1.46633
   H       -8.23091        -3.55598         1.51796
   H      -12.62987        -0.37938         0.36930
   H      -10.14777        -4.70528         0.41002
   H      -16.14327        -4.27844        -1.24870
   H      -16.50426        -9.25710        -1.41242
   H      -14.49507        -9.09156        -3.13408
   H      -14.23925        -4.33889        -3.79319
   H      -12.38531        -4.21373        -5.67356
   H      -12.44118        -8.61186        -2.60359
   H      -10.35252        -8.83755        -4.82776
   H      -11.49629       -10.27796        -1.34381
   H      -10.38070       -14.17325         0.62420
   H       -8.91556       -13.86176        -0.33979
   H      -10.31894       -14.68847        -1.08038
   H      -10.08532        -9.92765        -6.44290
   H       -8.39227        -8.64366        -9.62077
   H       -9.15633        -8.41830        -8.01683
   H       -9.74709        -9.68638        -9.11460
   H       -6.17029       -11.70582        -6.92563
   H       -7.10458       -12.48571        -4.56014
   H       -8.56714       -14.32675        -2.56889
   H       -9.75213       -13.63003        -5.29812
   H       -7.19501       -19.43534        -7.07693
   H       -6.91493       -18.26378        -5.31926
   H       -5.30640       -16.68753        -4.76236
   H       -1.35878       -19.50597        -3.00435
   H       -2.60147       -20.02976         2.38613
   H        0.08935       -21.02508        -1.65746
   H       -4.03484       -18.53438         1.09237
*
