# ORCA input file
# SCF done       -204.718896751449          0.000431652677
! CAM-B3LYP def2-SVP def2/J RIJCOSX Grid4 TightSCF
%maxcore 5000
%tddft
    Mode sTDDFT
    Ethresh 5.0
    maxcore 5000
end

%pal
  nprocs 6
  end
* xyz 0 1
   C        0.51465        -0.33101         6.87696
   N        0.14119         0.64559         7.74014
   C        0.22053         0.57756         9.17789
   C       -0.82830        -0.36960         9.75434
   C       -0.41701         1.75783         7.05506
   O       -0.83318         2.74709         7.61781
   C       -0.33115         1.37788         5.66455
   C        0.24260         0.07248         5.59693
   C        0.31915        -0.29876         4.19871
   O        0.73724        -1.28624         3.64068
   N       -0.24801         0.80349         3.51178
   C       -0.13778         0.86642         2.07111
   C        0.90754         1.88475         1.62696
   C       -0.62067         1.80469         4.37664
   C       -1.20991         3.06835         4.06719
   C       -1.97851         3.37528         3.00387
   C       -2.48705         4.68668         2.71242
   C       -1.75488         5.85785         2.62455
   N       -0.36502         6.03517         2.75483
   O        0.05611         7.17682         2.68220
   O        0.34918         5.05582         2.90318
   C       -2.60326         6.92028         2.13981
   C       -3.85036         6.42949         1.97193
   C       -3.87259         5.04397         2.38263
   C       -4.97961         4.23422         2.53753
   C       -4.97909         2.81819         2.74807
   C       -6.20890         2.32097         2.43926
   C       -7.07493         3.40240         2.09183
   N       -8.42612         3.20635         1.77387
   O       -9.12568         4.17779         1.52381
   O       -8.83156         2.05513         1.75197
   C       -6.38514         4.61194         2.24948
   C       -6.97661         5.88320         2.24658
   C       -6.54371         6.97022         2.96952
   C       -7.14070         8.23892         2.90540
   C       -8.13345         8.68277         2.03464
   C       -8.40395        10.04387         2.29740
   C       -7.50638        10.41163         3.39111
   C       -6.74728         9.36470         3.75094
   F       -7.43417        11.65905         3.89423
   C       -9.30347        10.87920         1.65379
   C       -9.66305        12.20498         1.97263
   C      -10.55905        12.67467         1.02210
   C      -10.77651        11.61224         0.03873
   C      -10.05737        10.55213         0.43294
   F       -9.96949         9.37410        -0.18762
   C      -11.15252        13.95154         0.91309
   C      -11.06871        14.92022         1.86480
   C      -11.59631        16.24822         1.74840
   C      -12.71867        16.48472         0.93038
   C      -13.29601        17.72635         0.92572
   C      -12.79753        18.76095         1.73677
   C      -13.65641        19.95281         1.53307
   O      -13.57966        21.04737         2.02998
   N      -14.61330        19.56114         0.60815
   C      -14.47576        18.24278         0.19596
   O      -15.18924        17.68727        -0.60047
   C      -15.68277        20.42541         0.15621
   C      -16.89570        20.32486         1.07433
   C      -11.69993        18.56697         2.53112
   C      -11.04786        17.31557         2.51729
   C       -9.83389        17.20782         3.26978
   C       -8.80421        16.34767         3.06103
   C       -7.65417        16.28312         3.87689
   S       -7.37362        17.36180         5.24526
   C       -6.59166        15.40568         3.79298
   N       -6.18812        14.38226         2.97394
   C       -4.96741        13.84046         3.55957
   O       -4.59408        14.68887         4.63476
   C       -5.59400        15.60270         4.77393
   C       -5.83572        16.61984         5.65469
   C       -5.06381        17.09224         6.76780
   C       -3.89485        16.56288         7.12474
   H        0.95612        -1.24503         7.22974
   H        0.04976         1.59364         9.54343
   H        1.22496         0.25543         9.46869
   H       -1.82541        -0.04158         9.47115
   H       -0.75978        -0.37928        10.83831
   H       -0.67741        -1.38212         9.38652
   H       -1.10975         1.07897         1.62087
   H        0.16648        -0.13853         1.76182
   H        0.67149         2.88171         1.99090
   H        0.95697         1.90730         0.54186
   H        1.88468         1.60320         2.01156
   H       -1.05819         3.80882         4.84186
   H       -2.25085         2.61457         2.28566
   H       -2.24429         7.90771         1.92276
   H       -4.68531         6.95835         1.55913
   H       -4.13801         2.23850         3.06769
   H       -6.52166         1.29382         2.45527
   H       -7.92089         5.96047         1.72387
   H       -5.71914         6.85082         3.66114
   H       -8.63141         8.09197         1.29204
   H       -5.99074         9.32964         4.51050
   H       -9.30788        12.74707         2.82720
   H      -11.41641        11.68900        -0.81815
   H      -11.65813        14.15937        -0.02035
   H      -10.58313        14.68098         2.80046
   H      -13.15271        15.68608         0.35030
   H      -15.94566        20.11508        -0.85782
   H      -15.29681        21.44746         0.14579
   H      -17.27142        19.30433         1.09014
   H      -17.68310        20.98206         0.71690
   H      -16.62573        20.61947         2.08581
   H      -11.31541        19.36916         3.14242
   H       -9.70633        17.94182         4.05668
   H       -8.80069        15.68100         2.20859
   H       -6.85364        13.73097         2.58917
   H       -4.15717        13.83899         2.81635
   H       -5.10908        12.81729         3.93982
   H       -5.49439        17.92104         7.31275
   H       -3.46718        15.73795         6.58148
   H       -3.34204        16.94103         7.96598
*
