# ORCA input file
# SCF done       -166.757434437996          0.000723217170
! CAM-B3LYP def2-SVP def2/J RIJCOSX Grid4 TightSCF
%maxcore 5000
%tddft
    Mode sTDDFT
    Ethresh 5.0
    maxcore 5000
end

%pal
  nprocs 6
  end
* xyz 0 1
   C        1.47511        -7.72192        11.34170
   S        1.44287        -7.78474         9.64630
   C        2.24264        -9.34171         9.61351
   C        2.51098        -9.77253        10.93016
   C        2.06845        -8.83643        11.91452
   C        2.26424        -9.10439        13.28593
   C        2.87940       -10.26716        13.66892
   C        3.11041       -10.59388        15.11010
   C        3.30851       -11.18769        12.68306
   C        3.13551       -10.95949        11.34464
   C        2.56760       -10.00820         8.43311
   C        2.32218        -9.51582         7.17382
   C        2.63013       -10.10957         5.94178
   C        2.94539       -11.42049         5.54931
   N        3.26403       -12.56620         6.28333
   O        3.23853       -13.63302         5.68788
   O        3.57135       -12.47545         7.46791
   C        2.85758       -11.50480         4.11994
   C        2.49932       -10.29739         3.60731
   C        2.40306        -9.36086         4.67874
   C        2.33083        -7.98554         4.56341
   C        2.92911        -7.03557         5.45948
   C        2.91699        -5.80927         4.87576
   C        2.24534        -5.90757         3.61093
   N        2.02148        -4.79076         2.79250
   O        1.44125        -4.94288         1.72682
   O        2.43328        -3.71346         3.19114
   C        1.85592        -7.22638         3.39660
   C        1.04775        -7.69525         2.32746
   C        0.20783        -8.75631         2.38469
   C       -0.59659        -9.24052         1.29315
   C       -1.60466       -10.19303         1.57419
   C       -2.42153       -10.72440         0.60706
   C       -2.21810       -10.29981        -0.70462
   C       -1.19682        -9.35911        -0.99247
   C       -0.38712        -8.81455        -0.02410
   O       -1.20700        -9.15240        -2.32989
   C       -2.22176        -9.94379        -2.78932
   N       -2.83008       -10.63398        -1.87412
   C       -2.43710        -9.98035        -4.20041
   S       -1.12746        -9.54352        -5.23381
   C       -2.08211        -9.95016        -6.61540
   N       -1.50888        -9.80022        -7.89556
   O       -2.19110       -10.09500        -8.85428
   O       -0.36768        -9.38513        -7.93550
   C       -3.34334       -10.38274        -6.29966
   C       -3.56325       -10.39144        -4.91012
   C       -4.84832       -10.70238        -4.33722
   O       -5.75304       -11.35557        -5.12789
   C       -6.86416       -11.45295        -4.36320
   C       -6.57557       -10.83183        -3.11403
   N       -5.28534       -10.37565        -3.16757
   C       -7.51307       -10.75304        -2.09686
   C       -8.73941       -11.32214        -2.39581
   C       -9.00287       -11.93616        -3.65504
   C       -8.08069       -12.02522        -4.67920
   O      -10.27752       -12.38209        -3.62918
   C      -10.74159       -12.03742        -2.39026
   N       -9.88112       -11.42253        -1.64411
   C      -12.09228       -12.35760        -2.00636
   C      -12.95387       -12.97860        -2.80544
   H        1.06069        -6.87339        11.85069
   H        1.92518        -8.38535        14.01645
   H        2.74996        -9.79757        15.75584
   H        4.17325       -10.74279        15.29671
   H        2.59624       -11.51762        15.37314
   H        3.78867       -12.09800        13.01012
   H        3.47172       -11.67810        10.61388
   H        3.06968       -10.95925         8.53712
   H        1.83496        -8.55002         7.11167
   H        3.06846       -12.40543         3.57440
   H        2.42001       -10.04974         2.56750
   H        3.43548        -7.28807         6.37055
   H        3.33447        -4.89658         5.25616
   H        1.06051        -7.07058         1.44468
   H        0.08531        -9.27948         3.32452
   H       -1.73279       -10.50406         2.60068
   H       -3.19092       -11.44263         0.83555
   H        0.37800        -8.10169        -0.28122
   H       -4.07612       -10.66777        -7.03297
   H       -7.30330       -10.28644        -1.15144
   H       -8.28967       -12.49017        -5.62686
   H      -12.34935       -12.04521        -1.00573
   H      -12.67688       -13.28071        -3.80157
   H      -13.95697       -13.20104        -2.48710
*
