# ORCA input file
# SCF done       -173.907930629942          0.000926440490
! CAM-B3LYP def2-SVP def2/J RIJCOSX Grid4 TightSCF
%maxcore 5000
%tddft
    Mode sTDDFT
    Ethresh 5.0
    maxcore 5000
end

%pal
  nprocs 6
  end
* xyz 0 1
   C      -17.00936         2.01925        -6.55018
   C      -17.93465         3.03096        -6.55016
   C      -19.32951         2.82776        -6.60277
   N      -20.47198         2.72540        -6.63549
   C      -17.61876         4.40425        -6.51430
   N      -17.41582         5.53487        -6.49566
   C      -17.30032         0.59701        -6.66790
   C      -16.07647        -0.11589        -6.72388
   C      -16.01763        -1.48314        -6.84022
   C      -17.22677        -2.18341        -6.90887
   C      -18.44562        -1.46432        -6.84983
   C      -18.50388        -0.08123        -6.72993
   S      -19.81804        -2.52507        -6.94422
   C      -18.75244        -3.90028        -7.06212
   C      -17.43521        -3.58337        -7.03287
  Br      -19.47793        -5.62224        -7.20935
   C      -14.95314         0.82909        -6.63022
   O      -13.77060         0.55371        -6.56395
   C      -15.56599         2.16939        -6.51421
   C      -14.89505         3.31674        -6.19861
   N      -13.56761         3.55536        -6.31152
   C      -12.65282         2.96067        -7.14225
   S      -13.11887         2.26489        -8.65421
   C      -11.47352         1.82636        -8.94640
   N      -11.19003         1.13935       -10.13491
   O      -10.03779         0.81622       -10.34385
   O      -12.13393         0.92107       -10.87388
   C      -10.62138         2.20314        -7.94331
   C      -11.27909         2.89416        -6.90928
   C      -10.57579         3.40843        -5.75252
   C      -10.76686         4.60823        -5.17317
   C      -10.02704         5.04964        -4.03227
   O       -9.26190         4.16634        -3.33815
   C       -8.68710         4.80309        -2.33116
   C       -9.06160         6.12658        -2.31802
   N       -8.73435         7.05554        -1.30489
   O       -9.40251         8.07347        -1.23766
   O       -7.84172         6.75186        -0.53659
   C       -9.92923         6.31060        -3.44515
   N      -10.52600         7.46916        -3.86703
   C       -9.99834         8.72927        -3.79952
   C       -8.68545         9.07280        -3.70578
   C       -8.19032        10.40405        -3.58680
   C       -6.83968        10.49559        -3.51179
   C       -6.16828         9.24864        -3.57312
   S       -7.32705         7.94839        -3.74939
   C       -4.82043         8.99081        -3.48710
   C       -3.76000         9.91725        -3.33261
   C       -2.53356         9.34024        -3.25720
   C       -2.54524         7.92096        -3.34821
   S       -4.19327         7.35189        -3.54157
   C       -1.44837         7.10756        -3.29140
   C       -1.42171         5.70263        -3.36936
   S       -2.82626         4.66779        -3.56325
   C       -1.91286         3.21261        -3.55598
   C       -0.57227         3.48208        -3.41165
   C       -0.30896         4.88152        -3.30814
   O        1.01262         5.11562        -3.16776
   C        1.59417         3.88542        -3.17999
   N        3.00183         3.82276        -3.04837
   O        3.49646         2.71097        -3.05841
   O        3.61062         4.86456        -2.93694
   C        0.70201         2.85717        -3.32365
   H      -15.06958        -1.99579        -6.88305
   H      -19.45667         0.41938        -6.68472
   H      -16.64273        -4.30657        -7.09587
   H      -15.44504         4.14736        -5.77367
   H      -13.18047         4.24581        -5.68136
   H       -9.56597         2.00129        -7.96585
   H       -9.79087         2.77322        -5.36696
   H      -11.45298         5.33541        -5.58813
   H       -8.04637         4.25869        -1.66629
   H      -11.42940         7.38135        -4.30886
   H      -10.72767         9.52489        -3.85324
   H       -8.86322        11.24112        -3.54140
   H       -6.30021        11.41890        -3.40376
   H       -3.93715        10.97619        -3.27777
   H       -1.61090         9.87914        -3.13422
   H       -0.48067         7.57659        -3.17011
   H       -2.40683         2.26904        -3.65682
   H        0.94316         1.81518        -3.35853
*
