# ORCA input file
# SCF done       -199.728852381481          0.000440184611
! CAM-B3LYP def2-SVP def2/J RIJCOSX Grid4 TightSCF
%maxcore 5000
%tddft
    Mode sTDDFT
    Ethresh 5.0
    maxcore 5000
end

%pal
  nprocs 6
  end
* xyz 0 1
   C        0.66026         3.59107         0.85379
   C        0.87099         3.46454         2.20354
   C        2.06887         2.98389         2.77211
   N        3.02136         2.60745         3.29095
   C       -0.05773         3.79112         3.21377
   N       -0.75404         4.02747         4.09617
   C        1.61219         3.21769        -0.18803
   C        1.02150         3.46057        -1.45213
   C        1.67483         3.22397        -2.63717
   C        2.97962         2.72592        -2.57151
   C        3.56341         2.48444        -1.30558
   C        2.90017         2.72197        -0.10735
   S        5.18579         1.87951        -1.45754
   C        5.05861         1.96531        -3.19573
   C        3.86403         2.41978        -3.64158
  Br        6.51702         1.44390        -4.25304
   C       -0.31706         4.03582        -1.25396
   O       -1.05319         4.46789        -2.12317
   C       -0.53306         4.09020         0.19844
   C       -1.59573         4.68890         0.82336
   C       -2.81310         5.16811         0.29889
   S       -3.53311         6.50960         1.18202
   C       -4.90772         6.54868         0.12759
   C       -4.83083         5.51579        -0.81358
   C       -3.65277         4.76146        -0.73975
   S       -3.39560         3.29924        -1.67993
   C       -3.49043         3.89897        -3.40809
   C       -4.88532         4.04037        -3.98965
   C       -5.60961         5.28353        -3.50341
   S       -6.23856         5.13727        -1.79756
   C       -5.92568         7.50837         0.14691
   C       -6.08416         8.56807         0.99985
   C       -7.04689         9.57274         0.82088
   C       -7.75448         9.84651        -0.33568
   C       -8.75643        10.83355        -0.49959
   C       -9.25300        10.93926        -1.76983
   C       -8.65101        10.05075        -2.68078
   S       -7.45881         9.07112        -1.87543
   C       -8.83691         9.85377        -4.04331
   C       -9.71724        10.43981        -4.96835
   C       -9.53637         9.99759        -6.25124
   C       -8.48891         9.06034        -6.40301
   S       -7.78622         8.70779        -4.84606
   C       -7.99370         8.54760        -7.58659
   C       -6.83962         7.77613        -7.71826
   S       -5.92134         7.22541        -6.35182
   C       -4.58538         6.73350        -7.36717
   C       -4.92019         6.86153        -8.72388
   C       -6.17465         7.45159        -8.91936
   S       -6.97208         7.88795       -10.42683
   C       -5.55829         8.23274       -11.53179
   C       -5.11091         6.98699       -12.27944
   C       -4.89750         5.82239       -11.32645
   S       -3.79379         6.26692        -9.93792
   C       -3.38731         6.48429        -6.68509
   C       -2.11355         6.45082        -7.18629
   C       -0.94017         6.42156        -6.41637
   C       -0.67140         6.72339        -5.09767
   C       -1.39936         7.34105        -4.02061
   C       -2.49751         8.17693        -4.09682
   C       -3.27959         8.54882        -2.99065
   N       -4.00851         8.80215        -2.13704
   C       -2.91602         8.80267        -5.28410
   N       -3.23484         9.40955        -6.20632
   C       -0.63660         7.13910        -2.78855
   C        0.62187         6.58401        -3.12328
   C        0.64664         6.29431        -4.56902
   O        1.54320         5.76596        -5.19398
   C        1.60442         6.35971        -2.19278
   C        1.32039         6.66949        -0.85803
   C        0.06266         7.22570        -0.53255
   C       -0.92229         7.47667        -1.47963
   S       -0.07617         7.52952         1.17471
   C        1.52209         6.87907         1.42686
   C        2.13785         6.47707         0.28905
  Br        2.21705         6.76895         3.16675
   H        1.20633         3.43043        -3.58642
   H        3.39189         2.52743         0.83099
   H        3.61358         2.54715        -4.67885
   H       -1.47723         4.91031         1.87809
   H       -2.93438         4.83367        -3.44144
   H       -2.92742         3.14131        -3.95235
   H       -5.47907         3.15612        -3.74835
   H       -4.79329         4.09822        -5.07881
   H       -4.98225         6.17415        -3.54024
   H       -6.50677         5.46307        -4.09518
   H       -6.66503         7.34462        -0.62326
   H       -5.44606         8.63714         1.87169
   H       -7.22882        10.24022         1.65364
   H       -9.08689        11.43780         0.32734
   H      -10.01308        11.63922        -2.06823
   H      -10.45008        11.17121        -4.67737
   H      -10.10890        10.33803        -7.09589
   H       -8.48839         8.84260        -8.50225
   H       -5.90861         9.00146       -12.21903
   H       -4.76091         8.64265       -10.91367
   H       -4.18230         7.21264       -12.80817
   H       -5.86629         6.70043       -13.01463
   H       -4.40286         4.99046       -11.82588
   H       -5.83620         5.47359       -10.89862
   H       -3.51098         6.37319        -5.61536
   H       -1.97664         6.44254        -8.25801
   H       -0.05010         6.09363        -6.94821
   H        2.56164         5.95309        -2.47949
   H       -1.86615         7.89982        -1.17764
   H        3.12611         6.05506         0.25990
*
