# ORCA input file
# SCF done       -182.297189756074          0.000526547175
! CAM-B3LYP def2-SVP def2/J RIJCOSX Grid4 TightSCF
%maxcore 5000
%tddft
    Mode sTDDFT
    Ethresh 5.0
    maxcore 5000
end

%pal
  nprocs 6
  end
* xyz 0 1
   C       -2.54210         2.36166        -0.74613
   C       -2.79200         1.28095         0.06406
   C       -1.79686         0.39869         0.53313
   N       -1.04437        -0.37532         0.92345
   C       -4.05555         0.91462         0.56540
   N       -5.04775         0.57042         1.03429
   C       -1.22308         2.84157        -1.14133
   C       -1.37388         4.06304        -1.84689
   C       -0.30384         4.80338        -2.28611
   C        0.97809         4.30959        -2.02595
   C        1.11864         3.08400        -1.33169
   C        0.03661         2.33781        -0.88253
   S        2.78816         2.66679        -1.10504
   C        3.26899         4.12453        -1.93166
   C        2.23399         4.88644        -2.35797
  Br        5.09122         4.50112        -2.15840
   C       -2.80460         4.39896        -1.94204
   O       -3.29114         5.39598        -2.44015
   C       -3.51925         3.28438        -1.27731
   C       -4.88606         3.16541        -1.20790
   C       -5.79905         4.12800        -1.64708
   C       -7.15211         4.00569        -1.43144
   C       -8.14356         4.99527        -1.64910
   C       -9.37521         4.66420        -1.17341
   C       -9.42383         3.38350        -0.57494
   S       -7.86812         2.58772        -0.69518
   C      -10.46196         2.79092         0.10961
   C      -11.71312         3.33600         0.48909
   C      -12.44636         2.52883         1.29634
   C      -11.83344         1.27509         1.59873
   S      -10.29200         1.16868         0.74329
   C      -12.37928         0.29471         2.36542
   C      -11.84388        -1.00913         2.66029
   C      -12.66753        -2.11908         2.64686
   C      -14.11337        -2.13133         2.31692
   F      -14.37846        -1.56428         1.12154
   F      -14.62016        -3.36639         2.27623
   F      -14.85830        -1.44164         3.20793
   S      -11.83954        -3.59916         2.93804
   C      -10.34429        -2.74042         3.11890
   O       -9.17996        -3.36267         3.30920
   C       -9.21675        -4.74622         3.59170
   C      -10.49546        -1.37268         2.99450
   N       -9.50059        -0.44170         3.23508
   C       -8.41733        -0.53375         4.03788
   S       -8.18295        -1.80956         5.17565
   C       -6.68872        -1.08178         5.68113
   N       -5.97051        -1.74809         6.67083
   O       -4.93138        -1.25096         7.06503
   O       -6.45277        -2.79595         7.07842
   C       -6.39285         0.07115         5.00507
   C       -7.38457         0.42461         4.07421
   C       -7.37481         1.63496         3.30056
   C       -6.27639         2.37309         3.05204
   C       -6.29316         3.62505         2.37374
   S       -7.75084         4.56167         2.10271
   C       -6.93248         5.85539         1.32338
   C       -5.58443         5.60556         1.26944
   C       -5.23993         4.34849         1.86671
   O       -3.90499         4.13717         1.79943
   C       -3.40137         5.24265         1.18209
   N       -2.00439         5.28821         0.98043
   O       -1.54785         6.30769         0.50056
   O       -1.35829         4.30278         1.27845
   C       -4.35045         6.16296         0.83223
   H       -0.45253         5.74275        -2.79446
   H        0.19513         1.42003        -0.34224
   H        2.34845         5.81838        -2.88076
   H       -5.30375         2.27634        -0.75054
   H       -5.42878         5.02906        -2.11404
   H       -7.90030         5.92924        -2.12355
   H      -10.24026         5.30034        -1.22644
   H      -12.01811         4.31713         0.17343
   H      -13.41004         2.78171         1.70031
   H      -13.38796         0.47320         2.71423
   H       -8.18284        -5.04821         3.74082
   H       -9.65242        -5.29945         2.75426
   H       -9.79426        -4.94554         4.49818
   H       -9.57614         0.42418         2.71356
   H       -5.50229         0.63913         5.19917
   H       -8.32229         1.99075         2.91314
   H       -5.29668         2.02771         3.34558
   H       -7.48277         6.70246         0.97123
   H       -4.17041         7.09013         0.32905
*
