# ORCA input file
# SCF done       -190.312441271997          0.000375178668
! CAM-B3LYP def2-SVP def2/J RIJCOSX Grid4 TightSCF
%maxcore 5000
%tddft
    Mode sTDDFT
    Ethresh 5.0
    maxcore 5000
end

%pal
  nprocs 6
  end
* xyz 0 1
   C       -0.93917         2.02314        -5.04222
   C        0.33321         2.51872        -4.95362
   C        1.47141         1.88569        -5.49870
   N        2.43302         1.42433        -5.92237
   C        0.69672         3.71939        -4.30585
   N        1.07412         4.67687        -3.79725
   C       -1.32226         0.76795        -5.67331
   C       -2.71548         0.57260        -5.50456
   C       -3.37471        -0.52623        -6.00090
   C       -2.62384        -1.48253        -6.69141
   C       -1.23174        -1.27938        -6.85579
   C       -0.56600        -0.16713        -6.35830
   S       -0.49781        -2.57684        -7.74823
   C       -2.04753        -3.36411        -7.88587
   C       -3.06412        -2.69198        -7.29445
  Br       -2.17774        -4.99632        -8.79863
   C       -3.29291         1.71750        -4.77642
   O       -4.46785         1.92306        -4.57473
   C       -2.14170         2.61732        -4.47362
   C       -2.26096         3.83226        -3.89140
   C       -3.44919         4.29456        -3.21356
   C       -3.95005         5.57090        -3.41240
   C       -5.11610         6.02093        -2.79447
   C       -5.82300         5.23445        -1.89844
   C       -5.33684         3.92890        -1.65159
   C       -4.14003         3.46423        -2.29718
   N       -3.81838         2.22899        -1.91400
   S       -4.94551         1.69750        -0.90171
   N       -5.88047         2.99438        -0.87651
   C       -7.00072         5.71300        -1.22863
   O       -7.75651         6.66542        -1.82961
   C       -7.56641         5.40051        -0.01036
   C       -7.38955         4.64801         1.24244
   O       -6.50759         3.93240         1.63246
   N       -8.51389         4.99771         1.99105
   C       -9.36563         5.92882         1.40192
   O      -10.36904         6.36838         1.90063
   C       -8.73150         6.19953         0.11059
   C       -8.82282         6.96973        -1.03608
   C       -9.77918         7.92430        -1.44542
   C       -9.69475         8.58928        -2.63467
   C      -10.62729         9.53390        -3.08274
   C      -10.52257        10.19334        -4.28449
   C      -11.41760        11.15108        -4.82021
   C      -11.05171        11.63708        -6.03910
   C       -9.84531        11.08974        -6.53257
   S       -9.19076         9.93656        -5.40003
   C       -9.20964        11.37414        -7.72954
   C       -9.61122        12.28427        -8.73073
   C       -8.76250        12.33491        -9.79686
   C       -7.64905        11.46997        -9.69022
   S       -7.72055        10.58035        -8.18898
   C       -6.64627        11.30450       -10.62461
   C       -5.56172        10.45023       -10.44801
   C       -4.55319        10.16514       -11.34100
   C       -4.41716        10.41696       -12.74999
   C       -5.43125        10.54940       -13.67037
   C       -5.22051        10.76148       -15.04666
   N       -5.11020        10.95753       -16.17307
   C       -6.79841        10.37692       -13.37779
   N       -7.92152        10.20009       -13.21351
   C       -2.99893        10.28160       -13.08188
   C       -2.31803         9.75860       -11.95392
   C       -3.27800         9.60261       -10.84061
   O       -3.06480         9.14885        -9.73683
   C       -0.97303         9.48341       -11.96643
   C       -0.26337         9.74650       -13.14382
   C       -0.94999        10.28018       -14.25923
   C       -2.31375        10.55128       -14.24973
   S        0.11882        10.53866       -15.60439
   C        1.45529         9.93000       -14.66406
   C        1.12090         9.55425       -13.40706
  Br        3.16536         9.85114       -15.43087
   H       -4.43769        -0.64342        -5.85976
   H        0.49360        -0.05495        -6.51615
   H       -4.08324        -3.03291        -7.28503
   H       -1.43709         4.53373        -3.92864
   H       -3.44079         6.22653        -4.10321
   H       -5.47222         7.01811        -3.00382
   H       -8.67487         4.63027         2.91819
   H      -10.59463         8.09826        -0.75927
   H       -8.85470         8.37418        -3.28328
   H      -11.47934         9.75961        -2.45577
   H      -12.30357        11.44791        -4.28749
   H      -11.61317        12.36749        -6.59286
   H      -10.50544        12.87415        -8.64141
   H       -8.90359        12.95966       -10.66048
   H       -6.71928        11.90324       -11.52072
   H       -5.43259        10.00889        -9.46369
   H       -0.48118         9.07804       -11.09618
   H       -2.79215        10.96193       -15.12335
   H        1.81971         9.15823       -12.69302
*
