# ORCA input file
# SCF done       -167.137386550111          0.000787499773
! CAM-B3LYP def2-SVP def2/J RIJCOSX Grid4 TightSCF
%maxcore 5000
%tddft
    Mode sTDDFT
    Ethresh 5.0
    maxcore 5000
end

%pal
  nprocs 6
  end
* xyz 0 1
   C       -1.98196        -9.51567         4.38985
   C       -0.83681        -8.91123         4.73030
   C       -0.23373        -8.81135         6.03000
   C        0.92596        -8.12058         6.05303
   C        1.33390        -7.62514         4.77889
   S        0.17978        -8.07243         3.54796
   C        2.46131        -6.89122         4.49086
   C        3.46667        -6.43911         5.38025
   C        4.45299        -5.72517         4.77606
   C        4.28604        -5.57712         3.37393
   S        2.82313        -6.37617         2.85194
   C        5.12450        -4.91411         2.51113
   C        4.89624        -4.82902         1.13158
   O        3.80178        -5.41965         0.57630
   C        5.62037        -4.22272         0.10895
   C        6.81067        -3.43249        -0.18639
   O        7.68111        -2.99970         0.52487
   N        6.74904        -3.25484        -1.57321
   C        5.65652        -3.84111        -2.19873
   O        5.42163        -3.80204        -3.37863
   C        4.92378        -4.47356        -1.09345
   C        3.80154        -5.21794        -0.77375
   C        2.74902        -5.76197        -1.54506
   C        2.67789        -5.66214        -2.89726
   C        1.61433        -6.22025        -3.64880
   O        0.57232        -6.84793        -3.03290
   C        1.39652        -6.26248        -5.01715
   C        1.94249        -5.89075        -6.32730
   O        2.94780        -5.31775        -6.64415
   N        0.98650        -6.37824        -7.22808
   C       -0.10277        -7.02092        -6.65629
   O       -1.02580        -7.50785        -7.25673
   C        0.17345        -6.94245        -5.21645
   C       -0.31029        -7.28903        -3.96937
   C       -1.50508        -7.97293        -3.63415
   C       -1.91342        -8.27920        -2.37931
   C       -3.13907        -8.95355        -2.13200
   O       -3.94474        -9.30785        -3.16811
   C       -3.75056        -9.35206        -0.95784
   C       -3.61541        -9.38744         0.49960
   O       -2.73770        -8.99767         1.22779
   N       -4.78082       -10.01556         0.92261
   C       -5.66123       -10.40175        -0.09368
   O       -6.70984       -10.95639         0.08484
   C       -4.97754        -9.96638        -1.31677
   C       -5.06335        -9.92207        -2.69487
   C       -6.05945       -10.38686        -3.59650
   C       -5.92362       -10.26711        -4.93776
   C       -6.89511       -10.71659        -5.87178
   O       -6.65103       -10.56500        -7.20151
   C       -8.13001       -11.31749        -5.72706
   C       -9.11114       -11.81218        -4.75600
   O       -9.09064       -11.83196        -3.55356
   N      -10.14819       -12.29143        -5.55252
   C       -9.95702       -12.16612        -6.92813
   O      -10.73706       -12.52015        -7.77134
   C       -8.63839       -11.53013        -7.03381
   C       -7.69446       -11.05205        -7.91654
   C       -7.69345       -11.01858        -9.35227
   C       -6.69144       -10.52826       -10.07972
   H       -2.58159       -10.01751         5.12954
   H       -2.32787        -9.50286         3.37157
   H       -0.70100        -9.26104         6.88818
   H        1.51290        -7.94496         6.93708
   H        3.43255        -6.64954         6.43419
   H        5.29981        -5.29793         5.28287
   H        6.01233        -4.43153         2.88788
   H        7.45028        -2.73658        -2.08264
   H        1.98145        -6.28653        -0.99299
   H        3.44290        -5.14921        -3.46322
   H        1.08946        -6.26943        -8.22703
   H       -2.11337        -8.25040        -4.48338
   H       -1.32582        -8.01849        -1.51229
   H       -4.98569       -10.18450         1.89723
   H       -6.93307       -10.84433        -3.15376
   H       -5.03926        -9.81075        -5.36017
   H      -10.98327       -12.70217        -5.15938
   H       -8.58327       -11.43167        -9.80530
   H       -5.80853       -10.12126        -9.61560
   H       -6.72806       -10.52379       -11.15441
*
