# ORCA input file
# SCF done       -145.857069784511          0.000612594977
! CAM-B3LYP def2-SVP def2/J RIJCOSX Grid4 TightSCF
%maxcore 5000
%tddft
    Mode sTDDFT
    Ethresh 5.0
    maxcore 5000
end

%pal
  nprocs 6
  end
* xyz 0 1
   C        6.38881         6.44205        11.30723
   C        6.91500         5.54239        10.46603
   C        7.68149         5.79298         9.27827
   C        8.08111         4.68029         8.62580
   C        7.66909         3.46056         9.23524
   S        6.74545         3.79305        10.68787
   C        7.91913         2.18306         8.80001
   C        8.64272         1.78385         7.64647
   C        8.70902         0.43977         7.47570
   C        8.04036        -0.31198         8.48052
   S        7.33718         0.77156         9.66883
   C        7.92895        -1.67362         8.52624
   C        7.28734        -2.39196         9.56092
   O        6.85326        -1.72232        10.67011
   C        6.38831        -2.59007        11.55179
   C        6.49113        -3.87364        11.05379
   N        6.10521        -5.05606        11.69678
   O        5.54215        -4.97014        12.76954
   O        6.35693        -6.11463        11.12903
   C        7.05807        -3.76299         9.74052
   N        7.27864        -4.81533         8.91393
   C        7.33023        -4.76439         7.54146
   C        7.60605        -5.81897         6.76426
   C        7.96165        -7.16268         7.33029
   C        7.68325        -5.63467         5.26948
   N        9.03814        -5.33855         4.84503
   C        9.57019        -4.09817         4.99731
   C       10.89830        -3.82900         5.01376
   C       11.43270        -2.52690         5.10042
   C       12.76805        -2.23669         5.10067
   C       13.37582        -0.95975         5.20524
   C       14.73438        -0.97530         5.16317
   C       15.29426        -2.26769         5.01876
   S       14.02119        -3.47056         4.95143
   C       16.62298        -2.61215         4.92788
   C       17.75439        -1.76255         4.94692
   C       18.93807        -2.41349         4.81802
   C       18.83230        -3.82805         4.67376
   S       17.13398        -4.28321         4.74538
   C       19.89821        -4.67304         4.57767
   C       19.94701        -6.08213         4.38952
   S       21.32111        -6.91462         5.09608
   C       20.76946        -8.42395         4.49718
   C       19.61978        -8.30740         3.77567
   C       19.14660        -6.97452         3.70417
   C       17.95700        -6.63047         2.87333
   C       17.65373        -7.71114         1.81913
   C       17.57330        -9.07730         2.51838
   O       17.13203       -10.03093         1.57603
   C       16.63419       -11.21856         2.13021
   C       18.95076        -9.45334         3.08516
   N       16.42573        -7.45236         1.09420
   H        6.51705         7.49594        11.13441
   H        5.82955         6.14543        12.17544
   H        7.89605         6.80024         8.96771
   H        8.66044         4.68414         7.71953
   H        9.08767         2.50113         6.98030
   H        9.21478        -0.04956         6.66182
   H        8.40481        -2.24862         7.74744
   H        6.01726        -2.23188        12.49095
   H        7.16962        -5.72579         9.35548
   H        7.09112        -3.80314         7.11189
   H        7.19128        -7.51089         8.01851
   H        8.90099        -7.11871         7.88252
   H        8.06389        -7.89969         6.53816
   H        7.04667        -4.80488         4.95352
   H        7.35733        -6.54078         4.75277
   H        9.69442        -6.10274         4.92911
   H        8.84688        -3.29499         5.04356
   H       11.60465        -4.64662         4.95523
   H       10.74213        -1.69668         5.17576
   H       12.78114        -0.06838         5.30774
   H       15.35294        -0.09789         5.22787
   H       17.65829        -0.69658         5.05340
   H       19.89990        -1.93122         4.81048
   H       20.86623        -4.20906         4.73001
   H       21.33212        -9.31225         4.70562
   H       18.11352        -5.66725         2.38024
   H       17.07422        -6.52833         3.51516
   H       18.46070        -7.75233         1.07938
   H       16.83984        -9.00682         3.34115
   H       16.21212       -11.78666         1.30329
   H       15.84770       -11.01694         2.86930
   H       17.41976       -11.81579         2.60923
   H       19.57179        -9.78349         2.24601
   H       18.85905       -10.29463         3.77678
   H       15.63407        -7.45148         1.72878
   H       16.46980        -6.54440         0.64541
*
