# ORCA input file
# SCF done       -178.017596641221          0.000590192798
! CAM-B3LYP def2-SVP def2/J RIJCOSX Grid4 TightSCF
%maxcore 5000
%tddft
    Mode sTDDFT
    Ethresh 5.0
    maxcore 5000
end

%pal
  nprocs 6
  end
* xyz 0 1
   C       -0.71739        -4.16079         1.76310
   C        0.51962        -4.47373         2.17154
   C        1.12276        -4.17397         3.43976
   C        2.39369        -4.61057         3.57072
   C        2.90380        -5.28920         2.42661
   S        1.68748        -5.35202         1.16791
   C        4.15366        -5.83521         2.26659
   C        5.22259        -5.84381         3.20015
   C        6.34270        -6.46132         2.74620
   C        6.22902        -6.98089         1.42843
   S        4.63385        -6.64866         0.78669
   C        7.19665        -7.65057         0.72689
   C        7.00853        -8.14314        -0.57455
   O        5.81231        -7.96201        -1.20442
   C        7.84679        -8.83787        -1.43396
   C        9.18179        -9.40845        -1.58119
   O       10.12574        -9.43847        -0.83200
   N        9.16090        -9.96107        -2.86368
   C        7.96267        -9.81087        -3.55940
   O        7.75313       -10.21878        -4.67342
   C        7.11187        -9.07752        -2.62078
   C        5.85712        -8.52261        -2.44627
   C        4.73310        -8.46308        -3.30322
   C        3.57405        -7.85055        -2.95645
   C        2.43610        -7.74654        -3.78730
   S        2.34780        -8.41378        -5.39097
   C        0.73816        -7.80695        -5.63466
   C        0.30066        -7.12424        -4.50812
   C        1.25501        -7.08416        -3.46905
   O        1.11038        -6.46708        -2.26539
   C        0.21988        -5.36615        -2.23912
   C       -1.25211        -5.77650        -2.12727
   C       -1.58267        -6.84804        -3.16490
   S       -3.37951        -6.89722        -3.46780
   C       -3.46273        -8.46985        -4.37178
   O       -0.96721        -6.60936        -4.41428
   C        0.06004        -8.05502        -6.86081
   C       -1.09642        -7.46829        -7.24018
   C       -1.73730        -7.76953        -8.48351
   C       -2.84697        -7.17783        -8.95599
   C       -3.60816        -6.11124        -8.23156
   C       -3.37433        -7.54177       -10.32376
   N       -4.74203        -7.99606       -10.27276
   C       -5.78538        -7.33660       -10.77776
   C       -7.08976        -7.71766       -10.63621
   C       -8.12067        -6.98718       -11.23781
   C       -9.46121        -7.28414       -11.15932
   C      -10.54091        -6.55607       -11.78206
   C      -10.44698        -5.43626       -12.57387
   C      -11.55025        -4.77955       -13.15397
   N      -12.40323        -4.19765       -13.65789
   C       -9.25245        -4.77747       -12.92401
   N       -8.32528        -4.18275       -13.25361
   C      -11.78970        -7.22663       -11.42618
   C      -11.48927        -8.34036       -10.60594
   C      -10.02498        -8.41905       -10.40950
   O       -9.43566        -9.25893        -9.75481
   C      -12.45789        -9.17357       -10.10417
   C      -13.79069        -8.89513       -10.42683
   C      -14.08124        -7.78108       -11.24698
   C      -13.10040        -6.93800       -11.75510
   S      -15.79034        -7.61757       -11.52168
   C      -16.08521        -9.02975       -10.54321
   C      -14.96512        -9.59609       -10.03646
  Br      -17.84616        -9.62308       -10.28145
   H       -1.38832        -3.62472         2.41074
   H       -1.08022        -4.42678         0.78717
   H        0.57241        -3.64293         4.19592
   H        2.99455        -4.47274         4.45196
   H        5.13205        -5.39491         4.17298
   H        7.25455        -6.56802         3.30643
   H        8.16216        -7.82409         1.17553
   H        9.95932       -10.43622        -3.25924
   H        4.85074        -8.93489        -4.26815
   H        3.47940        -7.38626        -1.98357
   H        0.51391        -4.78641        -1.36158
   H        0.36496        -4.75187        -3.13635
   H       -1.87331        -4.89524        -2.29421
   H       -1.46703        -6.18034        -1.13759
   H       -1.28722        -7.84042        -2.79566
   H       -4.48752        -8.58009        -4.70955
   H       -3.20081        -9.28632        -3.70420
   H       -2.78674        -8.43037        -5.22212
   H        0.54515        -8.76228        -7.52125
   H       -1.54446        -6.72357        -6.60236
   H       -1.25223        -8.52630        -9.08844
   H       -3.12058        -5.14533        -8.36859
   H       -3.65774        -6.30869        -7.16398
   H       -4.62324        -6.03161        -8.61445
   H       -2.75021        -8.32546       -10.76667
   H       -3.33675        -6.66240       -10.97453
   H       -4.92795        -8.81464        -9.70972
   H       -5.54436        -6.45029       -11.35340
   H       -7.34064        -8.59494       -10.06019
   H       -7.82306        -6.11981       -11.81242
   H      -12.19709       -10.01461        -9.48106
   H      -13.37481        -6.10167       -12.37553
   H      -14.96443       -10.47142        -9.41297
*
