# ORCA input file
# SCF done       -211.259387735637          0.000894044096
! CAM-B3LYP def2-SVP def2/J RIJCOSX Grid4 TightSCF
%maxcore 5000
%tddft
    Mode sTDDFT
    Ethresh 5.0
    maxcore 5000
end

%pal
  nprocs 6
  end
* xyz 0 1
   C       -3.06364        -6.42658         3.58991
   C       -2.43491        -6.48488         4.77037
   C       -3.01252        -6.73551         6.06215
   C       -2.12536        -6.73251         7.07829
   C       -0.77813        -6.48122         6.67851
   S       -0.68754        -6.24940         4.95034
   C        0.32898        -6.41206         7.48834
   C        0.39798        -6.57621         8.89739
   C        1.64655        -6.43349         9.40291
   C        2.65180        -6.15501         8.42837
   S        1.92576        -6.09976         6.84013
   C        3.94977        -5.85456         8.73550
   C        5.02035        -5.51720         7.86087
   C        5.95673        -4.51250         8.22221
   C        5.88219        -3.77229         9.49622
   O        5.11940        -3.92068        10.40670
   S        7.15562        -2.51239         9.52798
   C        7.78886        -2.96956         7.91230
   O        8.73116        -2.41980         7.43075
   C        6.97100        -4.08058         7.37238
   C        7.13083        -4.61312         6.08052
   C        6.26350        -5.66114         5.74904
   C        5.26686        -6.12638         6.60165
   C        4.61607        -7.35029         6.13459
   O        3.79925        -8.02737         6.69106
   S        5.24972        -7.77825         4.50020
   C        6.39769        -6.41591         4.48524
   O        7.15089        -6.19926         3.58035
   C        8.08042        -4.11934         5.09896
   C        9.38940        -3.96478         5.30465
   C       10.29868        -3.46568         4.29081
   C       10.05238        -2.30993         3.52980
   C        8.90341        -1.39373         3.72049
   O        7.98058        -1.47503         4.47130
   S        9.07314        -0.00379         2.58805
   C       10.58117        -0.63562         1.86362
   O       11.16253        -0.08331         0.97719
   C       10.94816        -1.89100         2.54872
   C       12.14693        -2.56411         2.26542
   C       12.42264        -3.68105         3.06720
   C       11.51423        -4.12024         4.02992
   C       11.89667        -5.37630         4.70732
   O       11.29677        -5.97225         5.55207
   S       13.46003        -5.94155         4.04505
   C       13.63092        -4.52824         2.94403
   O       14.60641        -4.36397         2.27899
   C       12.98016        -2.12639         1.15882
   C       14.27772        -1.84110         1.23880
   C       15.05660        -1.38645         0.09509
   C       15.69779        -0.14091         0.12230
   C       15.53321         0.78605         1.26168
   O       14.96911         0.57998         2.29563
   S       16.31325         2.33746         0.85819
   C       16.78188         1.78018        -0.79793
   O       17.20563         2.54737        -1.60879
   C       16.45613         0.34936        -0.93470
   C       16.72297        -0.44193        -2.08448
   C       16.02861        -1.68151        -2.12535
   C       15.20789        -2.12141        -1.08863
   C       14.57867        -3.44330        -1.31959
   O       13.78465        -4.02782        -0.64726
   S       15.17870        -4.10398        -2.87221
   C       16.15428        -2.63865        -3.23657
   O       16.78670        -2.54407        -4.24828
   C       17.59906        -0.05545        -3.13666
   C       18.71387         0.71970        -3.00427
   C       19.51938         1.07820        -4.09336
   C       20.63235         1.87764        -3.99807
   C       21.45737         2.30602        -5.07088
   C       22.47937         3.12062        -4.69932
   C       22.52376         3.38457        -3.30753
   S       21.21669         2.54922        -2.49069
   C       23.42188         4.17677        -2.62955
   C       24.51091         4.91063        -3.18441
   C       25.22413         5.61386        -2.27907
   C       24.75172         5.49023        -0.92876
   S       23.34319         4.41575        -0.90120
   C       25.25180         6.06928         0.17057
   H       -4.12719        -6.57539         3.52471
   H       -2.53267        -6.23176         2.67604
   H       -4.06918        -6.90738         6.16571
   H       -2.37989        -6.90242         8.10909
   H       -0.47434        -6.79216         9.48742
   H        1.89841        -6.51481        10.44508
   H        4.15791        -5.75147         9.79190
   H        7.65986        -3.93576         4.11954
   H        9.84412        -4.27694         6.23334
   H       12.45140        -1.98074         0.22625
   H       14.79916        -1.86421         2.18494
   H       17.39659        -0.47983        -4.10923
   H       19.03099         1.06433        -2.02964
   H       19.23740         0.73008        -5.07796
   H       21.26002         1.99689        -6.08204
   H       23.19748         3.53933        -5.38111
   H       24.72199         4.88853        -4.23856
   H       26.07770         6.22682        -2.50774
   H       26.10920         6.71614         0.10933
   H       24.81835         5.90952         1.14083
*
