# ORCA input file
# SCF done       -166.496847938473          0.000917184631
! CAM-B3LYP def2-SVP def2/J RIJCOSX Grid4 TightSCF
%maxcore 5000
%tddft
    Mode sTDDFT
    Ethresh 5.0
    maxcore 5000
end

%pal
  nprocs 6
  end
* xyz 0 1
   C        3.59976        -2.09953         7.04475
   C        3.11105        -1.16166         6.19283
   F        3.44352         0.13269         6.24168
   C        2.20776        -1.68868         5.23893
   F        1.62875        -0.90300         4.31988
   C        2.00082        -3.04167         5.35881
   S        2.95593        -3.64441         6.68611
   C        1.16628        -3.93933         4.58753
   C        1.13245        -5.29912         4.92848
   C        0.34805        -6.16104         4.20510
   C       -0.42146        -5.69221         3.12518
   C       -0.39499        -4.34858         2.78166
   C        0.39531        -3.48195         3.51135
   C       -1.14006        -6.80954         2.55535
   C       -0.81359        -7.97014         3.28295
   C        0.15958        -7.64699         4.39246
   C       -0.44019        -7.96504         5.77526
   C       -1.76595        -7.25591         6.02397
   C        1.48747        -8.40767         4.21898
   C        2.15281        -8.13910         2.87461
   C       -1.36273        -9.18247         2.95680
   C       -2.26926        -9.26993         1.88282
   C       -2.58183        -8.09917         1.16739
   C       -2.02839        -6.87920         1.48962
   C       -2.89570       -10.49840         1.49751
   C       -2.69239       -11.72502         2.05468
   C       -3.36722       -12.88280         1.64013
   C       -3.17914       -14.12723         2.19447
   C       -3.83967       -15.32723         1.84792
   C       -3.45150       -16.41113         2.58090
   C       -2.45931       -16.12471         3.54033
   S       -2.03336       -14.43608         3.49228
   C       -1.85951       -17.00984         4.42887
   C       -2.12517       -18.38363         4.58332
   C       -1.37009       -18.99464         5.54579
   C       -0.46492       -18.13762         6.19894
   S       -0.61581       -16.51225         5.54341
   C        0.47432       -18.32307         7.19820
   C        0.85923       -19.42423         7.97226
   C        1.91366       -19.19872         8.92374
   C        2.35454       -20.21510         9.84140
   N        3.36591       -19.95885        10.68653
   C        3.94145       -18.78244        10.67776
   C        3.48631       -17.76554         9.78526
   N        2.49842       -18.00214         8.94394
   C        4.09028       -16.48668         9.78531
   N        4.59183       -15.45603         9.80847
   C        5.01800       -18.52651        11.56376
   N        5.89482       -18.28055        12.25852
   C        1.76378       -21.49187         9.90173
   C        0.81012       -21.76377         8.89776
   C        0.36094       -20.75783         7.95457
   N       -0.51854       -21.26742         7.09921
   S       -0.74665       -22.83203         7.41838
   N        0.25451       -22.94797         8.66019
   C        2.16930       -22.42626        10.90639
   C        1.54288       -23.56974        11.36202
   F        0.32906       -23.98694        10.98969
   C        2.27701       -24.24833        12.35779
   F        1.84468       -25.37903        12.93328
   C        3.45320       -23.64036        12.66733
   S        3.66165       -22.18926        11.77518
   H        4.29230        -1.96371         7.84940
   H        1.72660        -5.65222         5.75900
   H       -0.98222        -3.97798         1.95532
   H        0.41244        -2.43991         3.24033
   H        0.27822        -7.66936         6.54223
   H       -0.58626        -9.04425         5.85295
   H       -1.64175        -6.17672         5.96832
   H       -2.14384        -7.50781         7.01194
   H       -2.50759        -7.55419         5.28600
   H        1.29325        -9.47729         4.32006
   H        2.16460        -8.11402         5.02339
   H        1.50240        -8.43881         2.05562
   H        3.08097        -8.70044         2.79957
   H        2.38065        -7.08146         2.76214
   H       -1.10718       -10.06379         3.52369
   H       -3.27685        -8.16743         0.34259
   H       -2.28334        -5.99447         0.92592
   H       -3.60498       -10.42841         0.68118
   H       -1.98496       -11.84758         2.86339
   H       -4.09068       -12.80093         0.83918
   H       -4.58305       -15.35393         1.07091
   H       -3.85053       -17.40087         2.45239
   H       -2.86181       -18.89331         3.98867
   H       -1.42809       -20.03521         5.80422
   H        1.03583       -17.43049         7.45268
   H        4.17708       -23.95521        13.39055
*
