# ORCA input file
# SCF done       -202.332765515254          0.000699027838
! CAM-B3LYP def2-SVP def2/J RIJCOSX Grid4 TightSCF
%maxcore 5000
%tddft
    Mode sTDDFT
    Ethresh 5.0
    maxcore 5000
end

%pal
  nprocs 6
  end
* xyz 0 1
   C       -6.90857         0.31423         4.29295
   C       -6.53199        -0.99562         4.14087
   C       -6.54465        -1.94702         5.18275
   N       -6.52542        -2.76805         5.98505
   C       -6.08722        -1.59762         2.94501
   N       -5.71736        -2.16869         2.01953
   C       -7.37626         0.91540         5.53824
   C       -7.68945         2.27714         5.29675
   C       -8.15781         3.11804         6.27737
   C       -8.32490         2.59212         7.56175
   C       -8.00910         1.23230         7.79569
   C       -7.53631         0.38161         6.80250
   S       -8.28913         0.79862         9.45201
   C       -8.81563         2.40671         9.80994
   C       -8.78618         3.23632         8.74412
   C       -7.42651         2.58783         3.88545
   O       -7.59367         3.66653         3.33974
   C       -6.92742         1.34985         3.27596
   C       -6.53255         1.20429         1.97049
   C       -6.49926         2.13935         0.92809
   S       -6.98580         3.81250         1.00418
   C       -6.56969         4.06725        -0.65623
   C       -6.07443         2.89940        -1.24388
   C       -6.03758         1.82323        -0.36509
   S       -5.48599         0.19685        -0.73154
   C       -4.99882         0.12045        -2.43294
   O       -4.60677        -0.94121        -2.82765
   C       -5.04356         1.29405        -3.38834
   O       -4.69046         1.13921        -4.52531
   S       -5.58476         2.90846        -2.93388
   C       -6.71654         5.32081        -1.30135
   C       -7.25726         6.40341        -0.69605
   C       -7.43476         7.71053        -1.26285
   C       -6.89340         8.07736        -2.50806
   C       -7.09683         9.34572        -2.99116
   C       -7.81476        10.28995        -2.23041
   C       -8.35849         9.94083        -1.00065
   C       -8.16688         8.66014        -0.53112
   C       -7.79022        11.55637        -2.92168
   C       -7.05024        11.40546        -4.10775
   C       -6.61305         9.96607        -4.28261
   C       -5.09258         9.83903        -4.45651
   C       -4.32139        10.48290        -3.30988
   C       -7.37592         9.40868        -5.50830
   C       -7.24324         7.91059        -5.74829
   C       -6.83927        12.47877        -4.93639
   C       -7.36613        13.73835        -4.59913
   C       -8.11092        13.86593        -3.41555
   C       -8.32450        12.79220        -2.57896
   C       -7.10571        14.83994        -5.48753
   C       -7.57537        16.10308        -5.36053
   C       -7.25750        17.13627        -6.28022
   C       -6.45364        17.11776        -7.41429
   C       -6.44235        18.41930        -7.99186
   C       -7.27986        19.26527        -7.17695
   O       -7.59666        20.44058        -7.24641
   N       -7.74080        18.41938        -6.15513
   C       -8.61881        18.90185        -5.12559
   C       -5.62399        18.39609        -9.12219
   N       -5.14559        17.10960        -9.24414
   C       -5.62136        16.26762        -8.22190
   O       -5.32601        15.08801        -8.14288
   C       -4.27592        16.57906       -10.25626
   C       -5.33013        19.48907        -9.98549
   C       -5.91955        20.78520        -9.77323
   C       -5.45989        21.65037       -10.74737
   C       -5.72944        23.01462       -10.98253
   C       -5.10475        23.60885       -12.04718
   C       -5.15031        24.94213       -12.55670
   C       -4.32208        25.02889       -13.66362
   C       -3.73484        23.74596       -13.87661
   C       -4.19836        22.86719       -12.90376
   C       -3.93039        21.50959       -12.67215
   C       -4.55775        20.90897       -11.60324
   C       -4.50322        19.57902       -11.10321
   C       -4.10880        26.22325       -14.44614
   C       -3.31511        26.32235       -15.50871
   H       -8.38663         4.14950         6.05860
   H       -7.31040        -0.64543         7.03472
   H       -9.11941         2.63492        10.81308
   H       -9.07727         4.27059         8.77761
   H       -6.17854         0.22378         1.67461
   H       -6.37558         5.36238        -2.32657
   H       -7.60929         6.28072         0.32165
   H       -6.29644         7.36882        -3.05909
   H       -8.91016        10.66343        -0.41834
   H       -8.57977         8.37160         0.42469
   H       -4.80661        10.31302        -5.39731
   H       -4.82477         8.78350        -4.51667
   H       -4.54575        11.54516        -3.24382
   H       -3.25159        10.36698        -3.46700
   H       -4.58234        10.01754        -2.36150
   H       -7.01938         9.94556        -6.38981
   H       -8.43494         9.64965        -5.38214
   H       -6.20357         7.61598        -5.86256
   H       -7.76847         7.64673        -6.66364
   H       -7.68551         7.34504        -4.93241
   H       -6.26697        12.38008        -5.84703
   H       -8.52032        14.82663        -3.14457
   H       -8.89499        12.91107        -1.66977
   H       -6.47078        14.61735        -6.33506
   H       -8.22190        16.37424        -4.53869
   H       -8.80082        19.95577        -5.33841
   H       -8.15778        18.81060        -4.13956
   H       -9.56993        18.36495        -5.13557
   H       -4.71534        16.68807       -11.24932
   H       -4.15744        15.51726       -10.03272
   H       -3.29565        17.05867       -10.22594
   H       -6.60183        21.01983        -8.97687
   H       -6.40561        23.55538       -10.33621
   H       -5.73586        25.74159       -12.14046
   H       -3.04505        23.50030       -14.66320
   H       -3.25368        20.96356       -13.31493
   H       -3.90466        18.80650       -11.54371
   H       -4.65958        27.09211       -14.10738
   H       -2.74788        25.48754       -15.88314
   H       -3.20534        27.24922       -16.04439
*
