# ORCA input file
# SCF done       -216.259090323688          0.000992616688
! CAM-B3LYP def2-SVP def2/J RIJCOSX Grid4 TightSCF
%maxcore 5000
%tddft
    Mode sTDDFT
    Ethresh 5.0
    maxcore 5000
end

%pal
  nprocs 6
  end
* xyz 0 1
   C       -4.43736        -0.00007        -0.31802
   C       -3.87381        -0.81458         0.62811
   C       -3.45080        -2.13702         0.37936
   N       -3.08156        -3.21406         0.23203
   C       -3.67502        -0.46548         1.98117
   N       -3.49952        -0.26749         3.09856
   C       -4.74490        -0.37704        -1.69037
   C       -5.47506         0.67471        -2.29359
   C       -5.91616         0.62105        -3.59344
   C       -5.62130        -0.52726        -4.33475
   C       -4.88594        -1.57216        -3.72535
   C       -4.44075        -1.51777        -2.41076
   S       -4.62428        -2.89326        -4.82352
   C       -5.49818        -2.03782        -6.06669
   C       -5.96052        -0.82442        -5.68301
  Br       -5.71175        -2.82438        -7.75540
   C       -5.65747         1.77712        -1.32691
   O       -6.24568         2.81360        -1.54271
   C       -4.91374         1.35902        -0.10844
   C       -4.52119         2.17054         0.91137
   C       -4.96940         3.50483         1.19377
   C       -6.28938         3.92070         0.95948
   C       -6.63224         5.22731         1.20024
   C       -5.68024         6.14447         1.67989
   C       -4.38339         5.72976         1.96527
   C       -4.04519         4.41459         1.73773
   C       -6.31539         7.43334         1.81534
   C       -7.66399         7.31616         1.42468
   C       -7.95866         5.91081         0.95308
   C       -8.20284         5.85555        -0.57454
   C       -9.43457         6.59381        -1.08009
   C       -9.10436         5.25861         1.74022
   C       -8.81374         5.18780         3.23511
   C       -8.50225         8.39922         1.51953
   C       -8.00157         9.64358         1.94538
   C       -6.64938         9.74237         2.31145
   C       -5.81242         8.64928         2.26262
   C       -8.90814        10.76084         1.96636
   C       -8.56357        12.05421         2.16710
   C       -9.42446        13.19161         2.13884
   C      -10.81877        13.20046         1.90534
   C      -11.57446        14.43323         1.89240
   N      -12.88505        14.40431         1.63822
   C      -13.49376        13.26477         1.40663
   C      -12.74818        12.04586         1.42447
   N      -11.45924        12.04653         1.66594
   C      -13.38615        10.80742         1.16702
   N      -13.91345         9.81315         0.95155
   C      -14.88202        13.26170         1.13616
   N      -16.00598        13.22146         0.91482
   C      -10.99835        15.70495         2.14403
   C       -9.59307        15.70195         2.29250
   C       -8.84067        14.46983         2.30572
   N       -7.53198        14.69109         2.43514
   S       -7.26747        16.26913         2.50585
   N       -8.79250        16.76480         2.37678
   C      -11.82033        16.86558         2.15058
   S      -13.33756        16.83381         1.31260
   C      -13.60131        18.53869         1.59095
   C      -12.57410        19.07463         2.37816
   C      -11.60955        18.12428         2.72175
   C      -10.56875        18.41161         3.77098
   C      -10.36316        17.25391         4.61123
   N      -10.21929        16.36530         5.31657
   C      -11.03131        19.58580         4.64353
   C      -11.30628        20.77903         3.74549
   C      -12.50054        20.51665         2.81328
   O      -12.40660        21.30330         1.63530
   C      -12.48836        22.69235         1.84358
   C      -14.80835        19.04968         1.08197
   C      -15.24190        20.34739         1.03575
   C      -16.48904        20.71030         0.51891
   C      -16.93706        22.00763         0.42081
   C      -18.18256        22.44372        -0.09026
   C      -18.35182        23.79431        -0.08367
   C      -17.24460        24.50794         0.43333
   S      -15.98482        23.39388         0.92401
   C      -17.09689        25.87202         0.55145
   C      -18.03304        26.87636         0.18119
   C      -17.60741        28.14143         0.39593
   C      -16.29166        28.23629         0.95883
   S      -15.64362        26.60468         1.19690
   C      -15.60962        29.34695         1.27080
   H       -6.47158         1.43957        -4.02381
   H       -3.87820        -2.33604        -1.99335
   H       -6.51704        -0.16407        -6.32275
   H       -3.72675         1.81094         1.55601
   H       -7.02486         3.20839         0.62524
   H       -3.65566         6.42389         2.35787
   H       -3.04016         4.07455         1.94271
   H       -8.26895         4.80448        -0.86075
   H       -7.31865         6.26773        -1.06749
   H      -10.34186         6.23015        -0.60566
   H       -9.52991         6.43429        -2.15194
   H       -9.34885         7.66298        -0.90668
   H       -9.26853         4.25180         1.35149
   H      -10.01741         5.83358         1.58435
   H       -7.91987         4.59897         3.42906
   H       -9.64864         4.72675         3.75744
   H       -8.66217         6.18465         3.64319
   H       -9.54991         8.31823         1.27115
   H       -6.26018        10.68735         2.65623
   H       -4.78014         8.73625         2.56751
   H       -9.94344        10.52740         1.76584
   H       -7.53062        12.31788         2.34952
   H       -9.61120        18.65549         3.29584
   H      -10.25715        19.82858         5.37371
   H      -11.93777        19.30717         5.18691
   H      -10.42854        20.97409         3.12414
   H      -11.50274        21.66547         4.35068
   H      -13.43858        20.77068         3.34424
   H      -12.60933        23.13884         0.85827
   H      -11.58211        23.09249         2.30953
   H      -13.35239        22.95701         2.46545
   H      -15.46229        18.29378         0.66083
   H      -14.60098        21.14483         1.37023
   H      -17.15341        19.93042         0.16944
   H      -18.91394        21.74123        -0.44945
   H      -19.23528        24.29442        -0.43726
   H      -18.99184        26.62202        -0.23430
   H      -18.17502        29.02805         0.17650
   H      -16.03984        30.31891         1.10613
   H      -14.62001        29.30548         1.68709
*
