# ORCA input file
# SCF done       -180.257642645330          0.002139667579
! CAM-B3LYP def2-SVP def2/J RIJCOSX Grid4 TightSCF
%maxcore 5000
%tddft
    Mode sTDDFT
    Ethresh 5.0
    maxcore 5000
end

%pal
  nprocs 6
  end
* xyz 0 1
   C      -11.59148         1.81149         6.76048
   S      -10.73098         1.63822         5.24078
   C      -10.55595        -0.02788         5.62153
   C      -11.15614        -0.30562         6.85014
   N      -11.72630         0.74022         7.46283
   C      -11.01394        -1.75342         7.19919
   C      -10.25563        -2.26227         6.00688
   C      -10.00536        -1.22203         5.10463
   S       -9.14492        -1.74471         3.71488
   C       -9.11494        -3.39182         4.34082
   C       -9.75415        -3.47960         5.57688
   C       -8.51564        -4.43968         3.62657
   C       -7.91071        -4.30979         2.40041
   C       -7.34560        -5.36757         1.69671
   C       -6.75232        -5.25499         0.44972
   C       -6.20141        -6.28822        -0.32544
   C       -5.70713        -5.87774        -1.53937
   C       -5.84252        -4.50411        -1.76876
   S       -6.61018        -3.73020        -0.40523
   C       -5.47254        -3.78367        -2.91013
   C       -4.93062        -4.27493        -4.09917
   C       -4.73184        -3.30424        -5.05824
   C       -5.09469        -2.02030        -4.65306
   S       -5.69956        -2.05601        -3.01296
   C       -5.04021        -0.84584        -5.41457
   C       -5.33281         0.40364        -4.94214
   C       -5.35666         1.57025        -5.71754
   C       -5.57386         2.87163        -5.26719
   C       -5.58794         3.81925        -6.26969
   C       -5.39565         3.28814        -7.54501
   S       -5.15958         1.56083        -7.45490
   C       -5.42648         3.96064        -8.77373
   C       -5.62202         5.32769        -8.99057
   C       -5.66913         5.67174       -10.32019
   C       -5.51389         4.58766       -11.19745
   S       -5.27856         3.11244       -10.29175
   C       -5.57789         4.64763       -12.58411
   C       -5.43734         3.54889       -13.42977
   C       -5.58246         3.58036       -14.82349
   O       -5.43698         2.44103       -15.59255
   C       -5.15568         1.29173       -14.92811
   C       -5.01627         1.25632       -13.51084
   C       -4.73744         0.01764       -13.03554
   S       -4.63837        -1.13047       -14.31800
   C       -4.97766         0.07480       -15.50312
   O       -5.15220         2.37510       -12.75618
   C       -5.90978         4.73645       -15.56107
   C       -6.15380         4.72734       -16.90497
   C       -6.52570         5.84523       -17.70703
   C       -6.94287         5.62522       -19.01069
   C       -7.37543         6.68842       -19.81695
   C       -7.87868         6.71934       -21.11458
   C       -8.06098         5.53922       -22.00988
   C       -9.53607         5.33453       -22.39015
   N      -10.35188         5.29806       -21.18912
   C       -7.17211         5.63863       -23.27503
   N       -5.75557         5.77019       -23.00593
   C       -8.17553         8.09711       -21.41648
   C       -8.68870         8.69762       -22.50988
   C       -8.90056        10.17087       -22.57816
   C       -8.53767        10.91194       -21.33046
   C       -8.02551        10.30487       -20.24613
   C       -7.82582         8.90213       -20.23541
   C       -7.34571         8.04072       -19.27459
   C       -6.87774         8.24948       -17.95496
   C       -6.49238         7.19147       -17.20291
   C       -8.09255        10.72497       -23.73307
   C       -8.61073        11.35194       -24.77133
   H      -11.97073         2.76851         7.05422
   H      -11.98420        -2.24181         7.31057
   H      -10.46250        -1.89350         8.13115
   H       -9.83617        -4.40694         6.11505
   H       -8.55269        -5.41622         4.09278
   H       -7.87661        -3.32757         1.94386
   H       -7.37598        -6.35694         2.13532
   H       -6.18654        -7.30691         0.02024
   H       -5.25542        -6.53731        -2.25863
   H       -4.70593        -5.31628        -4.24346
   H       -4.33160        -3.49860        -6.03788
   H       -4.74730        -0.95684        -6.45133
   H       -5.57309         0.52065        -3.89248
   H       -5.71726         3.09556        -4.22473
   H       -5.74510         4.86929        -6.10013
   H       -5.72903         6.03194        -8.18507
   H       -5.81920         6.67430       -10.68057
   H       -5.76545         5.61629       -13.01487
   H       -4.58758        -0.27769       -12.01853
   H       -5.02428        -0.17880       -16.54117
   H       -5.99365         5.65457       -15.00590
   H       -6.10296         3.77377       -17.41381
   H       -6.95674         4.61331       -19.39306
   H       -7.74045         4.64778       -21.45550
   H       -9.61342         4.41836       -23.00428
   H       -9.88821         6.17156       -22.99665
   H      -10.05917         4.53684       -20.58414
   H      -11.32815         5.15341       -21.42424
   H       -7.47282         6.50095       -23.87364
   H       -7.31464         4.73841       -23.88069
   H       -5.58442         6.61146       -22.46328
   H       -5.42680         4.98357       -22.45447
   H       -8.95644         8.14959       -23.40171
   H       -9.96186        10.35332       -22.80345
   H       -8.69557        11.97985       -21.35659
   H       -7.76769        10.87483       -19.36493
   H       -6.83585         9.25459       -17.56032
   H       -6.12885         7.35517       -16.20184
   H       -7.02488        10.57929       -23.64220
   H       -9.67255        11.50841       -24.87465
   H       -7.99405        11.73978       -25.56414
*
