# ORCA input file
# SCF done       -193.230476827575          0.000779707282
! CAM-B3LYP def2-SVP def2/J RIJCOSX Grid4 TightSCF
%maxcore 5000
%tddft
    Mode sTDDFT
    Ethresh 5.0
    maxcore 5000
end

%pal
  nprocs 6
  end
* xyz 0 1
   C       -9.11016       -11.41385         3.43702
   C       -9.35917       -11.09909         2.11691
   C       -8.87289       -11.83864         1.02360
   N       -8.50452       -12.39112         0.08488
   C      -10.14692       -10.02557         1.66148
   N      -10.78157        -9.18888         1.19240
   C       -8.33955       -12.57372         3.88769
   C       -8.36091       -12.60497         5.30243
   C       -7.72331       -13.57581         6.03244
   C       -7.02400       -14.56603         5.33169
   C       -7.00619       -14.52538         3.91992
   C       -7.65596       -13.54265         3.18048
   S       -6.07949       -15.83789         3.25431
   C       -5.73535       -16.41410         4.86345
   C       -6.28330       -15.66519         5.84843
  Br       -4.68088       -17.95031         5.09100
   C       -9.13986       -11.44795         5.80023
   O       -9.35865       -11.18547         6.96900
   C       -9.56212       -10.70864         4.60099
   C      -10.22341        -9.48776         4.62233
   C      -10.62666        -8.82468         5.76707
   C      -11.18303        -7.55075         5.75408
   C      -11.56168        -6.78759         6.87118
   C      -12.00020        -5.52417         6.56249
   C      -11.99135        -5.24818         5.18876
   S      -11.43874        -6.63684         4.28591
   C      -12.28632        -4.04122         4.55038
   C      -12.59318        -2.80519         5.13186
   C      -12.69470        -1.78397         4.21783
   C      -12.51097        -2.17890         2.88558
   S      -12.20339        -3.89713         2.81587
   C      -12.37621        -1.30786         1.79791
   C      -12.27261        -1.60058         0.45747
   C      -12.70595        -2.73462        -0.24086
   C      -12.33391        -3.06628        -1.55339
   C      -13.00388        -4.14089        -2.07860
   C      -13.97947        -4.66517        -1.21606
   S      -13.96624        -3.80749         0.30765
   C      -14.91403        -5.65597        -1.48567
   C      -15.01721        -6.44781        -2.65068
   C      -16.09691        -7.27475        -2.66236
   C      -16.93006        -7.16607        -1.51411
   S      -16.21522        -6.01652        -0.38197
   C      -18.15707        -7.73926        -1.36762
   C      -19.02310        -7.58492        -0.23074
   C      -18.49306        -7.55688         1.03234
   S      -19.63896        -7.40066         2.29098
   C      -20.91517        -7.31678         1.11491
   C      -20.46701        -7.43452        -0.21019
   C      -21.41285        -7.29127        -1.25739
   C      -20.94336        -7.32997        -2.68968
   C      -20.26483        -6.01596        -3.08189
   C      -22.75125        -7.05452        -0.96848
   C      -23.75515        -6.81637        -2.06763
   C      -24.35141        -8.12598        -2.59130
   C      -23.20097        -7.01006         0.37294
   C      -24.51648        -6.77184         0.92195
   C      -24.48856        -6.69055         2.28225
   S      -22.93831        -6.92180         2.98622
   C      -22.25477        -7.11842         1.40324
   C      -25.77619        -6.65835         0.21013
   C      -26.73358        -5.77325         0.53341
   C      -27.98967        -5.67875        -0.14566
   O      -28.26278        -6.54394        -1.17928
   C      -29.48534        -6.20546        -1.62261
   C      -30.45965        -6.54898        -2.59470
   C      -30.42522        -7.60299        -3.62747
   O      -31.32006        -7.79222        -4.42189
   N      -29.28631        -8.33741        -3.60559
   C      -31.48103        -5.65568        -2.36064
   O      -31.22291        -4.80675        -1.34516
   C      -29.99930        -5.14044        -0.89061
   C      -29.03031        -4.79497         0.06917
   H       -7.75801       -13.57222         7.11067
   H       -7.60929       -13.55591         2.10453
   H       -6.17112       -15.87592         6.89638
   H      -10.41387        -8.99607         3.67579
   H      -10.47576        -9.29428         6.72829
   H      -11.48856        -7.17853         7.87032
   H      -12.31842        -4.80129         7.29209
   H      -12.70605        -2.67810         6.19309
   H      -12.89849        -0.76044         4.48040
   H      -12.24113        -0.26899         2.07649
   H      -11.84092        -0.83040        -0.17149
   H      -11.56852        -2.51961        -2.07590
   H      -12.83260        -4.53557        -3.06347
   H      -14.29598        -6.38373        -3.44510
   H      -16.34235        -7.94516        -3.46685
   H      -18.49178        -8.35169        -2.19062
   H      -17.46127        -7.69053         1.29220
   H      -21.77619        -7.50981        -3.36426
   H      -20.25774        -8.16356        -2.82690
   H      -19.42103        -5.80371        -2.43068
   H      -20.97008        -5.19154        -3.00207
   H      -19.90584        -6.06641        -4.10739
   H      -23.29598        -6.27053        -2.89166
   H      -24.55204        -6.18168        -1.67899
   H      -23.59273        -8.73144        -3.08181
   H      -25.14290        -7.91887        -3.30869
   H      -24.76148        -8.71735        -1.77559
   H      -25.33242        -6.54674         2.92852
   H      -25.96792        -7.35763        -0.58881
   H      -26.58077        -5.04974         1.32039
   H      -28.56852        -8.18053        -2.92083
   H      -29.18450        -9.09144        -4.26329
   H      -32.42058        -5.55526        -2.86612
   H      -29.06641        -4.02482         0.81027
*
