# ORCA input file
# SCF done       -165.038715980665          0.000750518301
! CAM-B3LYP def2-SVP def2/J RIJCOSX Grid4 TightSCF
%maxcore 5000
%tddft
    Mode sTDDFT
    Ethresh 5.0
    maxcore 5000
end

%pal
  nprocs 6
  end
* xyz 0 1
   C       -1.79073        -1.43093        -0.76962
   C       -2.26782        -2.72138        -0.69545
   C       -1.46632        -3.86942        -0.84474
   N       -0.87254        -4.84678        -0.95846
   C       -3.60560        -3.09422        -0.46288
   N       -4.66891        -3.49173        -0.27967
   C       -0.39485        -1.06682        -1.01045
   C       -0.29082         0.34520        -1.02029
   C        0.89757         1.00004        -1.22645
   C        2.04362         0.22346        -1.43292
   C        1.93081        -1.18552        -1.41950
   C        0.72622        -1.84815        -1.21123
   S        3.46638        -1.95248        -1.69348
   C        4.22764        -0.38913        -1.82115
   C        3.37871         0.65395        -1.66687
  Br        6.07240        -0.28212        -2.14642
   C       -1.62706         0.93221        -0.78246
   O       -1.89025         2.11853        -0.72800
   C       -2.54349        -0.21352        -0.63294
   C       -3.90537        -0.10564        -0.41170
   C       -4.60420         1.08742        -0.29911
   C       -5.97739         1.13852        -0.11146
   C       -6.77806         2.29228        -0.01775
   C       -8.11520         2.03246         0.13266
   C       -8.41925         0.66224         0.16865
   S       -6.97056        -0.29576         0.01550
   C       -9.67361         0.06046         0.28052
   C      -10.93072         0.67842         0.34447
   C      -11.97591        -0.21031         0.40390
   C      -11.58148        -1.55563         0.39919
   S       -9.83979        -1.67320         0.31959
   C      -12.41133        -2.67515         0.42826
   C      -11.95974        -3.97377         0.45929
   C      -12.77630        -5.10174         0.43962
   C      -12.35511        -6.43907         0.50952
   C      -13.37680        -7.35062         0.44938
   C      -14.64754        -6.76469         0.31805
   S      -14.51583        -5.02378         0.29350
   C      -15.87512        -7.40505         0.19527
   C      -16.12104        -8.79438         0.21660
   C      -17.43353        -9.12097         0.04902
   C      -18.28723        -8.00216        -0.12139
   S      -17.36177        -6.51801        -0.04151
   C      -19.64101        -8.04029        -0.33710
   C      -20.43225        -6.89565        -0.54404
   C      -21.80732        -6.77133        -0.79757
   C      -22.69182        -7.92940        -1.01515
   O      -22.24642        -9.01227        -1.30486
   O      -24.00769        -7.74436        -0.89848
   C      -21.97878        -5.36165        -0.93103
   N      -20.82783        -4.74257        -0.77113
   O      -19.88224        -5.66854        -0.51499
   C      -23.11198        -4.52937        -1.28147
   S      -22.83292        -3.24304        -2.40020
   C      -24.46525        -2.68248        -2.24213
   C      -25.01944        -1.52585        -2.97117
   O      -26.15806        -1.17414        -2.82452
   O      -24.18993        -0.88781        -3.80753
   C      -25.16944        -3.44786        -1.34862
   C      -24.40197        -4.48901        -0.79907
   O      -24.85319        -5.36992         0.14018
   H        0.94357         2.07783        -1.22891
   H        0.69477        -2.92468        -1.21149
   H        3.67864         1.68480        -1.71587
   H       -4.48219        -1.01846        -0.32688
   H       -4.06761         2.02233        -0.37243
   H       -6.35153         3.27804        -0.06960
   H       -8.87194         2.79157         0.21618
   H      -11.04741         1.74686         0.33665
   H      -13.01162         0.07638         0.45004
   H      -13.47891        -2.49404         0.42271
   H      -10.89200        -4.15003         0.49978
   H      -11.31565        -6.69937         0.60215
   H      -13.23700        -8.41549         0.48727
   H      -15.33322        -9.51265         0.35434
   H      -17.82080       -10.12363         0.03293
   H      -20.15123        -8.98901        -0.39416
   H      -24.25070        -6.88631        -0.50325
   H      -23.30230        -1.27030        -3.83486
   H      -26.19858        -3.25252        -1.10437
   H      -25.77786        -5.18463         0.34464
*
