# ORCA input file
# SCF done       -209.969670445709          0.000502681015
! CAM-B3LYP def2-SVP def2/J RIJCOSX Grid4 TightSCF
%maxcore 5000
%tddft
    Mode sTDDFT
    Ethresh 5.0
    maxcore 5000
end

%pal
  nprocs 6
  end
* xyz 0 1
   C       -6.26166         2.29871        -6.57770
   C       -5.03712         1.76698        -6.86821
   C       -4.77527         0.95847        -7.99649
   N       -4.50661         0.30454        -8.89957
   C       -3.86813         1.99674        -6.11022
   N       -2.88831         2.16219        -5.53639
   C       -7.48030         2.14160        -7.35558
   C       -8.48104         3.00623        -6.83910
   C       -9.74968         3.06966        -7.36519
   C      -10.04973         2.23286        -8.44382
   C       -9.04502         1.37066        -8.95269
   C       -7.76125         1.31248        -8.42699
   S       -9.63189         0.42124       -10.28154
   C      -11.19616         1.17958       -10.13977
   C      -11.27647         2.09932        -9.14767
  Br      -12.57085         0.68719       -11.31293
   C       -7.93844         3.75399        -5.69997
   O       -8.42976         4.69866        -5.12505
   C       -6.58900         3.15543        -5.44304
   C       -5.88033         3.33361        -4.31154
   C       -6.35131         4.06866        -3.16560
   S       -5.28032         5.20843        -2.41736
   C       -6.49670         5.70166        -1.28101
   C       -7.64354         4.95818        -1.42884
   C       -7.56568         4.03746        -2.51086
   N       -8.64649         3.15638        -2.80749
   O       -8.42956         2.21141        -3.54215
   O       -9.71146         3.39829        -2.28908
   C       -8.72853         5.09634        -0.53667
   N       -9.53944         5.25073         0.25737
   C       -6.25308         6.71262        -0.25843
   C       -5.61762         6.36073         0.89201
   S       -5.51094         7.62237         2.04790
   C       -6.33285         8.69127         0.95635
   C       -6.67575         8.09059        -0.26262
   C       -7.32566         8.86245        -1.25754
   C       -7.61121         8.21148        -2.58773
   C       -9.04381         7.68793        -2.71497
   C       -7.65464        10.18910        -1.00726
   C       -8.45237        10.97558        -2.01463
   C       -9.87208        11.23779        -1.50694
   C       -7.28372        10.80349         0.21928
   C       -7.46492        12.15351         0.71807
   C       -6.97364        12.29185         1.98777
   S       -6.26306        10.88406         2.64825
   C       -6.63277        10.02302         1.18869
   C       -8.01860        13.30457         0.04374
   C       -8.60098        14.34459         0.67345
   C       -9.07692        15.50738         0.00007
   O       -8.97544        15.59392        -1.36674
   C       -9.47740        16.79611        -1.69418
   C       -9.73395        17.62452        -2.79682
   C       -9.49913        17.36224        -4.23299
   O       -9.82428        18.12258        -5.11830
   N       -8.90693        16.16781        -4.46598
   C      -10.27641        18.79047        -2.23423
   O      -10.38380        18.68582        -0.87114
   C       -9.89901        17.48131        -0.54908
   C       -9.64882        16.64774         0.54583
   C      -10.71829        19.95165        -2.90769
   C      -11.00871        21.16583        -2.36691
   C      -10.72981        21.72920        -1.06143
   C       -9.63719        21.46147        -0.27977
   C       -9.37771        22.09719         0.95085
   N       -9.13321        22.57250         1.96686
   C       -8.59506        20.59000        -0.66017
   N       -7.69680        19.93567        -0.94753
   C      -11.66244        22.83219        -0.85749
   C      -12.32117        23.10077        -2.08412
   C      -11.87730        22.12643        -3.10438
   O      -12.19062        22.08318        -4.26933
   C      -13.23088        24.12082        -2.22273
   C      -13.51058        24.90414        -1.09786
   C      -12.85762        24.61796         0.12525
   C      -11.93126        23.59186         0.26490
   S      -13.35953        25.70200         1.38662
   C      -14.42086        26.51772         0.26877
   C      -14.40383        26.00478        -0.98419
  Br      -15.45214        27.96661         0.86322
   H      -10.49005         3.73399        -6.94813
   H       -7.03343         0.63574        -8.84296
   H      -12.16485         2.65925        -8.91941
   H       -4.88171         2.92683        -4.21923
   H       -5.22169         5.39295         1.13289
   H       -6.92082         7.38080        -2.71880
   H       -7.40086         8.90726        -3.40200
   H       -9.33454         7.13947        -1.82272
   H       -9.12095         7.02218        -3.57197
   H       -9.75026         8.50192        -2.84868
   H       -8.52546        10.43410        -2.95340
   H       -7.94788        11.91576        -2.23703
   H      -10.37686        10.29510        -1.30938
   H      -10.44155        11.78633        -2.25407
   H       -9.86377        11.81642        -0.58721
   H       -6.94933        13.19492         2.56521
   H       -7.92425        13.36194        -1.02794
   H       -8.75012        14.34530         1.74231
   H       -8.60523        15.56898        -3.71836
   H       -8.68709        15.91983        -5.41589
   H       -9.83254        16.82990         1.58342
   H      -10.89575        19.82234        -3.97027
   H      -13.71141        24.31002        -3.16970
   H      -11.46165        23.40569         1.21672
   H      -14.99596        26.38490        -1.79648
*
