# ORCA input file
# SCF done       -231.065600410393          0.000397024136
! CAM-B3LYP def2-SVP def2/J RIJCOSX Grid4 TightSCF
%maxcore 5000
%tddft
    Mode sTDDFT
    Ethresh 5.0
    maxcore 5000
end

%pal
  nprocs 6
  end
* xyz 0 1
   C       -8.61005        15.76829         1.55875
   C       -9.01272        16.58137         0.53275
   C       -9.20405        17.97344         0.65678
   N       -9.37791        19.10710         0.70191
   C       -9.26028        16.14866        -0.78724
   N       -9.47074        15.86897        -1.88100
   C       -8.29019        16.19497         2.91379
   C       -7.77402        15.08780         3.63145
   C       -7.39073        15.17355         4.94787
   C       -7.52828        16.40907         5.58887
   C       -8.04824        17.50891         4.86462
   C       -8.43135        17.42393         3.53244
   S       -8.14518        18.93583         5.85146
   C       -7.49505        18.04860         7.20439
   C       -7.21764        16.75101         6.93336
  Br       -7.24870        18.91799         8.84772
   C       -7.74349        13.89860         2.75479
   O       -7.32451        12.80019         3.04428
   C       -8.37205        14.33574         1.48117
   C       -8.85721        13.50272         0.52492
   C       -8.58938        12.09339         0.41717
   C       -7.31182        11.61078         0.50285
   S       -7.15605         9.95198         0.13132
   C       -8.87861         9.82958        -0.08123
   C       -9.53989        11.05254         0.09532
   C      -10.95121        11.09821         0.01488
   C      -11.63759        12.41415         0.27560
   C      -11.92693        13.19507        -1.00856
   C      -11.67540         9.94392        -0.26719
   C      -13.15741        10.01150        -0.52714
   C      -13.46306         9.72422        -1.99982
   C      -11.00107         8.70325        -0.39681
   C      -11.51457         7.36742        -0.61833
   C      -10.51273         6.45686        -0.78851
   S       -8.92852         7.09747        -0.62171
   C       -9.59800         8.67659        -0.34455
   C      -12.89340         6.95100        -0.52633
   C      -13.46118         5.98424        -1.26893
   C      -14.80862         5.50656        -1.19942
   S      -15.17851         4.34191        -2.44108
   C      -15.91204         5.72075        -0.36928
   C      -16.00256         6.66650         0.75862
   O      -15.17633         7.52488         1.03832
   C      -17.22091         6.52792         1.53541
   C      -17.57989         7.16836         2.70208
   N      -18.81376         6.74455         3.06411
   C      -19.55797         7.22818         4.19958
   C      -20.40279         8.44369         3.82340
   C      -19.27590         5.86065         2.14879
   C      -18.31052         5.68984         1.18022
   C      -18.31643         4.86504        -0.01076
   O      -19.27989         4.19192        -0.34508
   C      -17.03554         4.91517        -0.74667
   C      -16.80613         4.13531        -1.87420
   C      -17.73316         3.30055        -2.54429
   C      -17.46942         2.57640        -3.65732
   C      -18.45846         1.81435        -4.33258
   O      -18.07910         1.09707        -5.44118
   C      -19.19713         0.51782        -5.90416
   C      -19.67187        -0.31650        -6.92659
   C      -18.92336        -0.96661        -8.02478
   O      -19.42381        -1.74265        -8.80941
   N      -17.61476        -0.62735        -8.05147
   C      -21.05285        -0.40330        -6.68967
   O      -21.41567         0.30218        -5.57118
   C      -20.29362         0.85790        -5.09954
   C      -19.82172         1.68647        -4.08151
   C      -22.02150        -1.11767        -7.43057
   C      -23.37331        -0.96892        -7.37348
   C      -24.19783         0.07359        -6.79619
   C      -23.87606         1.40193        -6.70120
   C      -24.75049         2.38744        -6.20136
   N      -25.42164         3.22067        -5.78495
   C      -22.66995         1.95206        -7.18382
   N      -21.73043         2.45469        -7.61081
   C      -25.53014        -0.48671        -6.59907
   C      -25.59483        -1.74211        -7.25493
   C      -24.27408        -2.05954        -7.84115
   O      -23.97521        -3.02024        -8.50836
   C      -26.74247        -2.49661        -7.28711
   C      -27.87323        -1.99451        -6.63390
   C      -27.79280        -0.74663        -5.97050
   C      -26.63544         0.02162        -5.94417
   S      -29.30179        -0.32236        -5.22121
   C      -30.01233        -1.80434        -5.80441
   C      -29.16498        -2.57898        -6.52198
  Br      -31.80466        -2.18817        -5.40821
   H       -7.00062        14.31273         5.46793
   H       -8.82812        18.28730         3.02491
   H       -6.81280        16.06142         7.65133
   H       -9.48035        13.92405        -0.25149
   H       -6.42783        12.18474         0.69975
   H      -11.00020        13.00959         0.93347
   H      -12.56940        12.25071         0.81925
   H      -11.02893        13.31342        -1.61089
   H      -12.31439        14.18367        -0.77093
   H      -12.66374        12.67684        -1.61575
   H      -13.54368        10.99996        -0.29505
   H      -13.69739         9.30891         0.10336
   H      -12.96003        10.44667        -2.63971
   H      -14.53422         9.79201        -2.17432
   H      -13.13362         8.72967        -2.28591
   H      -10.62890         5.40080        -0.93664
   H      -13.48568         7.43399         0.23180
   H      -12.87960         5.51457        -2.05512
   H      -17.02482         7.87447         3.28709
   H      -18.85135         7.49356         4.99008
   H      -20.20205         6.42284         4.56190
   H      -19.76741         9.25042         3.46600
   H      -20.95730         8.79304         4.68953
   H      -21.10834         8.18558         3.03746
   H      -20.24023         5.40089         2.23478
   H      -18.72219         3.28366        -2.11106
   H      -16.47831         2.56797        -4.09181
   H      -17.22371         0.04252        -7.41313
   H      -17.03491        -1.00945        -8.77950
   H      -20.36844         2.14587        -3.28596
   H      -21.62723        -1.90199        -8.06776
   H      -26.76835        -3.44467        -7.80091
   H      -26.61701         0.96424        -5.42244
   H      -29.43689        -3.52410        -6.95529
*
