# ORCA input file
# SCF done       -184.855716554945          0.000822263255
! CAM-B3LYP def2-SVP def2/J RIJCOSX Grid4 TightSCF
%maxcore 5000
%tddft
    Mode sTDDFT
    Ethresh 5.0
    maxcore 5000
end

%pal
  nprocs 6
  end
* xyz 0 1
   C      -26.86865        -0.63886        -5.32312
   C      -27.98500         0.15055        -5.45774
   C      -29.24887        -0.32700        -5.85734
   N      -30.30442        -0.65968        -6.16463
   C      -28.02006         1.54156        -5.23351
   N      -28.12161         2.67677        -5.08929
   C      -26.79696        -2.06621        -5.61975
   C      -25.46264        -2.50177        -5.43423
   C      -25.07459        -3.80314        -5.63498
   C      -26.04827        -4.71849        -6.04985
   C      -27.37872        -4.27426        -6.23197
   C      -27.77316        -2.95855        -6.02119
   S      -28.42137        -5.56932        -6.73912
   C      -27.07280        -6.67372        -6.70171
   C      -25.90201        -6.10523        -6.32894
  Br      -27.33792        -8.47372        -7.15795
   C      -24.63139        -1.36593        -4.98037
   O      -23.48819        -1.42890        -4.58447
   C      -25.54618        -0.19989        -4.94866
   C      -25.20047         1.03455        -4.45806
   C      -23.88571         1.50557        -4.35700
   S      -23.46983         2.78249        -3.22390
   C      -21.78137         2.83430        -3.67627
   C      -21.59290         1.91185        -4.69602
   C      -22.73961         1.18272        -5.08248
   N      -22.39625         0.39028        -6.14732
   C      -21.14434         0.62243        -6.32851
   O      -20.57274         1.52655        -5.49878
   C      -20.87483         3.70123        -3.03823
   C      -19.55086         3.78016        -3.34993
   C      -18.64786         4.64386        -2.70925
   S      -19.11430         5.72533        -1.40442
   C      -17.50596         6.39321        -1.18593
   C      -16.67753         5.78007        -2.10260
   C      -17.29115         4.81939        -2.94431
   N      -16.32686         4.31849        -3.78493
   C      -15.25404         4.94260        -3.44964
   O      -15.36542         5.84408        -2.44475
   C      -17.20212         7.37077        -0.20453
   C      -18.13132         7.86788         0.64051
   C      -17.89531         8.87454         1.64086
   C      -16.88419         9.78314         1.47357
   S      -16.78317        10.98311         2.68680
   C      -18.13387        10.26032         3.50661
   C      -18.64803         9.12748         2.85649
   C      -19.74009         8.44353         3.45431
   C      -20.23698         7.15831         2.84217
   C      -19.19995         6.04130         2.98149
   C      -20.31478         8.93004         4.62365
   C      -21.55001         8.30308         5.21944
   C      -21.22426         7.11776         6.13118
   C      -19.76937        10.06067         5.27839
   C      -20.17278        10.73666         6.48999
   C      -19.41876        11.84681         6.72432
   S      -18.17892        12.13219         5.56875
   C      -18.68172        10.72269         4.69064
   C      -21.19820        10.34055         7.44164
   C      -22.04790        11.21316         8.00475
   C      -23.03909        10.87411         8.98134
   O      -23.85617        11.88406         9.40944
   C      -24.68718        11.33723        10.29947
   C      -25.78387        11.63853        11.15058
   C      -26.41265        12.96185        11.35900
   O      -25.87072        14.00408        11.07039
   N      -27.65039        12.91743        11.91548
   C      -26.07397        10.43073        11.74636
   O      -25.26576         9.42574        11.33966
   C      -24.41977         9.97759        10.44829
   C      -23.34837         9.67079         9.59368
   H      -24.05067        -4.10530        -5.48110
   H      -28.80106        -2.67076        -6.16577
   H      -24.97270        -6.63957        -6.25226
   H      -25.97460         1.70127        -4.09996
   H      -20.52856         0.16654        -7.07861
   H      -21.27622         4.33307        -2.25731
   H      -19.13370         3.15916        -4.13081
   H      -14.28960         4.80702        -3.89817
   H      -16.16505         7.67144        -0.15349
   H      -19.13630         7.49347         0.52758
   H      -16.20792         9.83778         0.64318
   H      -20.49148         7.31338         1.79378
   H      -21.14823         6.82724         3.33181
   H      -18.26740         6.29846         2.48675
   H      -19.58025         5.12201         2.54171
   H      -18.98474         5.86070         4.03239
   H      -22.23085         7.98011         4.43056
   H      -22.07982         9.06610         5.79036
   H      -20.82795         6.28301         5.55954
   H      -22.12172         6.78307         6.64725
   H      -20.47712         7.39593         6.87147
   H      -19.50161        12.50615         7.56611
   H      -21.22325         9.30447         7.74106
   H      -22.04351        12.25290         7.70965
   H      -28.13652        12.05830        12.08989
   H      -28.13157        13.78850        12.06503
   H      -26.80283        10.17178        12.48946
   H      -22.86801         8.72782         9.44224
*
