# ORCA input file
# SCF done       -180.993204015281          0.000300317061
! CAM-B3LYP def2-SVP def2/J RIJCOSX Grid4 TightSCF
%maxcore 5000
%tddft
    Mode sTDDFT
    Ethresh 5.0
    maxcore 5000
end

%pal
  nprocs 6
  end
* xyz 0 1
   C       -7.28957        -5.18526        -8.99749
   C       -7.27669        -6.10067        -7.96770
   C       -6.73840        -7.39772        -8.07004
   N       -6.31897        -8.46762        -8.08121
   C       -7.79038        -5.89623        -6.67271
   N       -8.17885        -5.82612        -5.59269
   C       -6.74962        -5.42429       -10.33589
   C       -6.95333        -4.26280       -11.11921
   C       -6.55117        -4.16985       -12.42798
   C       -5.91404        -5.27951       -12.99520
   C       -5.71488        -6.43526       -12.20624
   C       -6.12331        -6.52846       -10.88023
   S       -4.90814        -7.68840       -13.10119
   C       -4.85076        -6.65413       -14.50374
   C       -5.40603        -5.43418       -14.31449
  Br       -4.06184        -7.28282       -16.08595
   C       -7.63431        -3.23758       -10.29963
   O       -7.95878        -2.12514       -10.66977
   C       -7.82166        -3.84997        -8.97125
   C       -8.40300        -3.21137        -7.88922
   C       -8.89933        -1.91592        -7.90682
   C       -9.44413        -1.29679        -6.79260
   C       -9.94808         0.01673        -6.72205
   C      -10.39852         0.37529        -5.47979
   C      -10.27096        -0.64391        -4.52087
   S       -9.57232        -2.07628        -5.23239
   C      -10.60557        -0.60060        -3.16936
   C      -11.11524         0.48236        -2.43228
   C      -11.29876         0.20226        -1.10501
   C      -10.94796        -1.11247        -0.74226
   S      -10.38281        -1.99288        -2.14308
   C      -11.00715        -1.65342         0.53051
   C      -10.67427        -2.94709         0.89810
   S      -10.15930        -4.22738        -0.18704
   C       -9.98511        -5.44179         1.08540
   C      -10.30058        -4.83869         2.32993
   C      -10.67777        -3.48380         2.19243
   O      -10.94030        -2.92082         3.37842
   C      -10.72274        -3.90034         4.29537
   N      -10.88609        -3.57880         5.66127
   O      -10.59706        -4.44697         6.46263
   O      -11.28662        -2.46668         5.93637
   C      -10.33362        -5.08731         3.72176
   C       -9.58410        -6.69616         0.66904
   C       -9.43835        -7.89040         1.36261
   C       -8.98741        -9.09004         0.77475
   C       -8.93923       -10.15510         1.63227
   C       -9.36210        -9.84268         2.93599
   S       -9.81163        -8.15997         3.04337
   C       -9.45475       -10.67687         4.04208
   C       -9.10143       -12.03761         4.14437
   C       -9.32661       -12.57430         5.37755
   C       -9.88715       -11.66786         6.31181
   S      -10.07884       -10.08897         5.56291
   C      -10.17400       -11.92747         7.62569
   C      -10.81764       -11.04491         8.52818
   O      -10.51426       -11.15221         9.83797
   C      -11.12687       -10.15293        10.49476
   C      -11.83891        -9.37384         9.64116
   C      -11.68392        -9.95725         8.35005
   C      -12.46518        -9.50950         7.21346
   O      -12.73553        -8.36814         6.94556
   C      -13.18963       -10.62532         6.38423
   F      -12.83377       -11.88432         6.68360
   F      -14.50551       -10.54340         6.63014
   F      -13.02750       -10.48093         5.06480
   H       -6.72077        -3.26956       -12.99758
   H       -5.94640        -7.43288       -10.32283
   H       -5.45631        -4.67321       -15.07177
   H       -8.47327        -3.75074        -6.95240
   H       -8.85416        -1.34905        -8.82558
   H       -9.96029         0.65997        -7.58370
   H      -10.81279         1.33843        -5.24207
   H      -11.32604         1.43510        -2.88277
   H      -11.67323         0.90521        -0.38228
   H      -11.33992        -1.00566         1.33130
   H      -10.11224        -5.98000         4.26623
   H       -9.36161        -6.76610        -0.38975
   H       -8.71011        -9.13621        -0.26332
   H       -8.62133       -11.14280         1.35269
   H       -8.68748       -12.58138         3.31455
   H       -9.12624       -13.59626         5.64435
   H       -9.82937       -12.86110         8.04680
   H      -10.97884       -10.10138        11.55510
   H      -12.43648        -8.51603         9.86785
*
