# ORCA input file
# SCF done       -172.399170471255          0.000897662390
! CAM-B3LYP def2-SVP def2/J RIJCOSX Grid4 TightSCF
%maxcore 5000
%tddft
    Mode sTDDFT
    Ethresh 5.0
    maxcore 5000
end

%pal
  nprocs 6
  end
* xyz 0 1
   C       -5.32600        -0.23878         2.78336
   C       -6.09886        -1.37223         2.80032
   C       -5.80929        -2.51519         3.57474
   N       -5.63061        -3.47437         4.17988
   C       -7.28744        -1.57381         2.06879
   N       -8.26288        -1.81780         1.51254
   C       -4.09730        -0.05093         3.54516
   C       -3.58930         1.24243         3.27656
   C       -2.43903         1.72473         3.85190
   C       -1.74567         0.88320         4.72726
   C       -2.25521        -0.41194         4.98462
   C       -3.42417        -0.89457         4.41044
   S       -1.23902        -1.29000         6.08753
   C       -0.15886         0.07520         6.18531
   C       -0.53777         1.13550         5.43311
  Br        1.36692        -0.02822         7.27102
   C       -4.46195         1.92539         2.30132
   O       -4.31873         3.05799         1.89334
   C       -5.55151         0.96374         1.99733
   C       -6.66492         1.20713         1.24795
   C       -6.87886         2.28663         0.33549
   C       -5.82593         2.79838        -0.38527
   S       -6.24312         3.99849        -1.51140
   C       -7.90540         3.89747        -1.00667
   C       -8.13648         2.91945        -0.02767
   C       -9.46119         2.73786         0.44866
   C       -9.75429         1.64626         1.44689
   C       -9.27521         2.02107         2.85058
   C      -10.48389         3.56712         0.00081
   C      -11.90059         3.40509         0.48591
   C      -12.66894         2.40913        -0.38614
   C      -10.23115         4.55289        -0.98147
   C      -11.12577         5.46875        -1.64417
   C      -10.49780         6.18285        -2.61381
   S       -8.81157         5.86282        -2.76274
   C       -8.93370         4.68043        -1.50104
   C      -12.54938         5.69911        -1.39935
   C      -13.48427         5.42244        -2.31398
   C      -14.88414         5.71220        -2.13682
   N      -15.73259         5.33469        -3.09681
   C      -16.96550         5.75350        -3.03341
   C      -17.31869         6.72698        -2.05895
   N      -16.49190         6.80951        -1.00203
   N      -15.32988         6.27420        -1.00115
   C      -18.47683         7.54165        -2.06681
   C      -19.25575         7.82167        -3.15638
   C      -20.39185         8.67406        -3.17566
   C      -20.95002         8.84645        -4.40542
   C      -20.29264         8.14236        -5.43681
   S      -18.94195         7.23577        -4.78314
   C      -20.58993         8.10510        -6.78462
   C      -21.63518         8.74272        -7.48448
   C      -21.63439         8.49494        -8.82489
   C      -20.59127         7.64832        -9.27267
   S      -19.60733         7.17694        -7.89683
   C      -20.40148         7.27143       -10.58096
   C      -19.43477         6.45825       -11.18015
   S      -19.57293         6.22427       -12.92179
   C      -18.18228         5.19210       -13.04757
   C      -17.62261         5.03229       -11.78196
   C      -18.31753         5.73422       -10.74969
   N      -17.64227         5.47128        -9.60637
   N      -16.59122         4.67069        -9.82797
   C      -16.55182         4.39286       -11.10462
   C      -17.80564         4.67090       -14.32030
   C      -16.76685         3.86100       -14.54510
   H       -2.08277         2.71787         3.62754
   H       -3.77057        -1.88719         4.64332
   H        0.01087         2.05778         5.37663
   H       -7.46280         0.48717         1.32546
   H       -4.80799         2.46665        -0.34311
   H       -9.29439         0.71498         1.11695
   H      -10.82105         1.44408         1.48851
   H       -8.22369         2.29973         2.85016
   H       -9.41160         1.18316         3.53061
   H       -9.84568         2.86798         3.22575
   H      -12.41007         4.36437         0.43815
   H      -11.92276         3.08510         1.52701
   H      -12.69971         2.75828        -1.41536
   H      -13.69080         2.31075        -0.02776
   H      -12.19782         1.42904        -0.37225
   H      -10.94292         6.92523        -3.24733
   H      -12.84096         6.17836        -0.47355
   H      -13.23074         4.95300        -3.25414
   H      -17.68823         5.27059        -3.67609
   H      -18.71758         8.03009        -1.13306
   H      -20.75274         9.13478        -2.27324
   H      -21.80840         9.46468        -4.59939
   H      -22.35604         9.36321        -6.98348
   H      -22.35594         8.89709        -9.51420
   H      -21.13046         7.67508       -11.27430
   H      -17.83120         5.79033        -8.67101
   H      -15.77946         3.76150       -11.49269
   H      -18.43721         4.97782       -15.14409
   H      -16.11826         3.53296       -13.75347
   H      -16.54364         3.50629       -15.53524
*
