# ORCA input file
# SCF done       -163.957081791317          0.000686042489
! CAM-B3LYP def2-SVP def2/J RIJCOSX Grid4 TightSCF
%maxcore 5000
%tddft
    Mode sTDDFT
    Ethresh 5.0
    maxcore 5000
end

%pal
  nprocs 6
  end
* xyz 0 1
   C       -5.47829        -9.30827         4.70467
   C       -5.22320        -8.21180         3.97931
   C       -6.16764        -7.36672         3.30362
   C       -5.61641        -6.32622         2.64367
   C       -4.19680        -6.25331         2.73654
   S       -3.58920        -7.58241         3.71265
   C       -3.36588        -5.32293         2.17220
   C       -3.72300        -4.19849         1.37703
   C       -2.66598        -3.46851         0.95411
   C       -1.39191        -3.95555         1.38424
   S       -1.62372        -5.38839         2.37634
   C       -0.19648        -3.43825         1.00045
   C        1.11649        -3.88461         1.36855
   C        1.43102        -4.46289         2.57227
   O        0.60619        -4.57797         3.62308
   C        1.00140        -5.43488         4.66785
   S        3.12029        -4.89015         2.68525
   C        3.40675        -4.28167         1.07997
   O        4.62646        -4.33578         0.51957
   C        5.66526        -4.89952         1.28576
   C        2.27079        -3.76657         0.49858
   C        2.18016        -3.22471        -0.82379
   C        3.18239        -3.14312        -1.72336
   C        3.09278        -2.60154        -3.03841
   S        4.44023        -2.87842        -4.10206
   C        3.70964        -2.00150        -5.41096
   C        2.46753        -1.52310        -5.02207
   C        2.12286        -1.85623        -3.69574
   S        0.67193        -1.30376        -2.86091
   C       -0.42654        -0.52688        -3.99694
   O       -1.43129        -0.04950        -3.53920
   C       -0.17265        -0.46397        -5.48227
   O       -1.05809        -0.14477        -6.22988
   S        1.42845        -0.70150        -6.18539
   C        4.41855        -1.93219        -6.64505
   C        4.18729        -1.08354        -7.66463
   C        4.93480        -1.08902        -8.89686
   C        5.18863         0.08937        -9.55418
   O        4.72453         1.29226        -9.17673
   C        5.10022         2.40050        -9.95847
   S        6.27240        -0.11258       -10.90285
   C        6.35783        -1.82592       -10.59315
   O        7.06678        -2.66187       -11.36911
   C        7.77750        -2.09793       -12.44359
   C        5.58110        -2.21520        -9.52765
   C        5.41125        -3.61380        -9.23671
   C        4.29000        -4.16247        -8.70993
   C        4.06290        -5.53082        -8.42672
   C        4.92385        -6.59217        -8.48100
   C        4.56806        -7.93364        -8.16170
   C        5.57868        -8.83206        -8.26166
   C        6.81408        -8.26539        -8.66837
   S        6.62633        -6.53791        -8.91828
   C        8.01109        -8.90614        -8.86458
   C        8.28604       -10.29392        -8.71014
   C        9.56404       -10.64375        -8.97281
   C       10.41167        -9.55203        -9.35961
   S        9.46380        -8.05600        -9.36479
   C       11.71302        -9.59654        -9.67509
   H       -6.48763        -9.65498         4.83918
   H       -4.69242        -9.87369         5.17067
   H       -7.22082        -7.58200         3.34529
   H       -6.17574        -5.59697         2.08450
   H       -4.74858        -3.97028         1.14782
   H       -2.73824        -2.58916         0.33794
   H       -0.24090        -2.60749         0.30881
   H        0.18660        -5.42539         5.38814
   H        1.92197        -5.07385         5.13963
   H        1.15848        -6.45459         4.30429
   H        6.56089        -4.83943         0.67095
   H        5.45204        -5.94510         1.52987
   H        5.81471        -4.34133         2.21573
   H        1.19807        -2.87958        -1.10204
   H        4.15456        -3.53913        -1.47185
   H        5.22999        -2.64220        -6.73155
   H        3.47578        -0.27705        -7.56674
   H        4.61475         3.26517        -9.51103
   H        4.76714         2.28380       -10.99514
   H        6.18660         2.53877        -9.94865
   H        7.09865        -1.62062       -13.15851
   H        8.30031        -2.92146       -12.92523
   H        8.50122        -1.35455       -12.09206
   H        6.22209        -4.24164        -9.57554
   H        3.45791        -3.50718        -8.48982
   H        3.05866        -5.77800        -8.10341
   H        3.56336        -8.18164        -7.86575
   H        5.47817        -9.88227        -8.05351
   H        7.51852       -10.98457        -8.40785
   H        9.95445       -11.64412        -8.90948
   H       12.25024       -10.52829        -9.65773
   H       12.25805        -8.71342        -9.95324
*
