# ORCA input file
# SCF done       -150.824344155531          0.001004537759
! CAM-B3LYP def2-SVP def2/J RIJCOSX Grid4 TightSCF
%maxcore 5000
%tddft
    Mode sTDDFT
    Ethresh 5.0
    maxcore 5000
end

%pal
  nprocs 6
  end
* xyz 0 1
   C       13.78454        -4.55035        -2.56818
   C       13.15210        -3.72317        -1.71893
   C       13.40178        -2.33334        -1.50043
   C       12.57550        -1.75541        -0.58951
   C       11.63356        -2.63996        -0.01735
   S       11.81710        -4.24315        -0.68172
   C       10.68154        -2.34783         0.95608
   C       10.39452        -1.11895         1.56039
   C        9.39155        -1.19472         2.49968
   C        8.86989        -2.47824         2.70007
   S        9.65083        -3.59707         1.61478
   C        7.81767        -2.74586         3.59930
   C        7.26253        -3.89177         4.10060
   C        7.63340        -5.25144         4.03334
   C        6.90349        -6.29521         4.59908
   C        7.48939        -7.54531         4.46982
   C        8.70423        -7.50701         3.80513
   S        9.10361        -5.87443         3.34817
   C        9.59648        -8.54250         3.45203
   C        9.59859        -9.89296         3.75721
   C       10.67249       -10.58219         3.20864
   C       11.54259        -9.79214         2.46532
   S       10.96637        -8.14627         2.45251
   C       12.67306       -10.24551         1.76041
   C       13.59093        -9.55028         1.02304
   S       14.76571       -10.48319         0.06623
   C       15.48198        -9.07016        -0.71545
   C       14.88651        -7.90685        -0.14633
   C       13.86635        -8.17387         0.78870
   N       13.47699        -6.97302         1.26728
   N       14.16491        -5.97451         0.71375
   C       15.01753        -6.50469        -0.13773
   C       16.41455        -9.18434        -1.70634
   C       16.83908        -8.07806        -2.46290
   C       17.77370        -8.08077        -3.45346
   C       18.05919        -6.92515        -4.21356
   C       18.99941        -6.74595        -5.21552
   C       18.99523        -5.47288        -5.77419
   C       18.04237        -4.63188        -5.22338
   S       17.15260        -5.45291        -3.97315
   C       17.72619        -3.29516        -5.55366
   C       18.33009        -2.45427        -6.47453
   C       17.73950        -1.20033        -6.55028
   C       16.65780        -1.03275        -5.69732
   S       16.39352        -2.49019        -4.77226
   C       15.84005         0.10212        -5.54579
   C       14.76312         0.16135        -4.71028
   C       13.92550         1.27280        -4.53932
   C       12.81532         1.35919        -3.69877
   C       12.17158         2.57631        -3.74067
   C       12.75917         3.49131        -4.62252
   S       14.15423         2.77606        -5.39821
   C       12.35659         4.79250        -4.90864
   C       11.25582         5.49010        -4.36695
   C       11.10287         6.75426        -4.84420
   C       12.08607         7.14039        -5.80561
   S       13.21030         5.79661        -6.05712
   C       12.19900         8.31325        -6.45367
   H       14.59177        -4.19291        -3.18296
   H       13.50988        -5.58514        -2.65914
   H       14.19377        -1.82874        -2.02462
   H       12.62204        -0.72006        -0.29997
   H       10.91377        -0.21215         1.30819
   H        9.03797        -0.34854         3.06342
   H        7.35819        -1.83127         3.96068
   H        6.38199        -3.74038         4.71588
   H        5.95836        -6.12923         5.08638
   H        7.04997        -8.45676         4.83360
   H        8.83932       -10.35142         4.36487
   H       10.83402       -11.63751         3.34162
   H       12.80138       -11.32129         1.77276
   H       12.76972        -6.75887         1.95097
   H       15.68457        -5.86761        -0.68178
   H       16.79893       -10.16499        -1.94967
   H       16.34153        -7.14007        -2.26140
   H       18.32659        -8.97878        -3.69333
   H       19.66685        -7.53123        -5.52442
   H       19.65639        -5.16361        -6.56373
   H       19.17606        -2.75496        -7.06604
   H       18.07428        -0.41906        -7.20963
   H       16.09568         0.96784        -6.14318
   H       14.50907        -0.71636        -4.12829
   H       12.50462         0.53215        -3.08381
   H       11.29861         2.81479        -3.16050
   H       10.60558         5.03714        -3.63954
   H       10.32243         7.43248        -4.54893
   H       11.49611         9.10745        -6.27545
   H       12.98584         8.49375        -7.16235
*
