# ORCA input file
# SCF done       -170.327329928425          0.000486890013
! CAM-B3LYP def2-SVP def2/J RIJCOSX Grid4 TightSCF
%maxcore 5000
%tddft
    Mode sTDDFT
    Ethresh 5.0
    maxcore 5000
end

%pal
  nprocs 6
  end
* xyz 0 1
   C        6.72423        -0.99772         6.66388
   C        7.22329        -1.17849         5.43358
   C        8.32243        -0.48784         4.82089
   C        8.59570        -0.88576         3.55919
   C        7.74082        -1.91607         3.07291
   S        6.57133        -2.36508         4.29166
   C        7.77285        -2.50708         1.83003
   C        8.64949        -2.23047         0.75337
   C        8.40596        -2.97603        -0.35590
   C        7.32465        -3.89177        -0.23346
   S        6.64020        -3.76491         1.37608
   C        6.89248        -4.69988        -1.25463
   C        5.83711        -5.63872        -1.29284
   C        5.06289        -6.03846        -0.19527
   C        4.02936        -6.94483        -0.30270
   C        3.68836        -7.52033        -1.52892
   C        4.45819        -7.16159        -2.67029
   N        4.14434        -7.72036        -3.84683
   C        4.85414        -7.39189        -4.89780
   C        5.91586        -6.48176        -4.79265
   N        6.24218        -5.91907        -3.65381
   C        5.52903        -6.23707        -2.56321
   C        2.62581        -8.44052        -1.69299
   S        2.22039        -9.14471        -3.23507
   C        0.89360       -10.12515        -2.57905
   C        0.77198        -9.86283        -1.19505
   C        1.74791        -8.93215        -0.74238
   O        1.60559        -8.66710         0.57149
   C        0.53205        -9.40404         0.96724
   N        0.12462        -9.32683         2.30342
   O       -0.81026       -10.03982         2.64047
   O        0.72723        -8.56706         3.04394
   C       -0.01609       -10.13988        -0.05621
   C        0.24418       -10.97158        -3.46763
   C       -0.61919       -12.02275        -3.20029
   C       -1.22277       -12.88847        -4.13683
   C       -1.93885       -13.91815        -3.57960
   C       -1.92911       -13.90954        -2.17581
   S       -1.00934       -12.55312        -1.58852
   C       -2.44456       -14.77664        -1.21503
   C       -3.07488       -16.03144        -1.30454
   C       -3.25930       -16.62411        -0.08471
   C       -2.76497       -15.87521         1.01296
   S       -2.13746       -14.36822         0.44787
   C       -2.82705       -16.23780         2.35235
   C       -2.33244       -15.57403         3.47439
   C       -1.32572       -14.62244         3.58038
   C       -1.08364       -13.76444         4.71924
   C       -1.80191       -13.70951         5.88977
   C       -1.47481       -12.87222         6.97541
   N       -1.25271       -12.23705         7.90644
   C       -2.94122       -14.47935         6.19602
   N       -3.87947       -15.05563         6.52653
   C        0.05193       -12.89960         4.39629
   C        0.54691       -13.27340         3.12441
   C       -0.24183       -14.40702         2.61728
   O       -0.00072       -15.05610         1.61050
   C        1.56500       -12.60635         2.49285
   C        2.12725       -11.50655         3.15097
   C        1.64893       -11.15420         4.43572
   C        0.61519       -11.83525         5.07200
   S        2.45909        -9.74896         5.05280
   C        3.39423        -9.64006         3.59145
   C        3.13670       -10.61752         2.68999
  Br        4.62109        -8.24480         3.37094
   H        7.14867        -0.26454         7.32695
   H        5.89205        -1.57304         7.02616
   H        8.85696         0.27691         5.35581
   H        9.38284        -0.47722         2.95079
   H        9.42600        -1.49062         0.82673
   H        8.96535        -2.90170        -1.27170
   H        7.41947        -4.58949        -2.19433
   H        5.28290        -5.64098         0.78188
   H        3.46931        -7.21188         0.57878
   H        4.58394        -7.85421        -5.83641
   H        6.51067        -6.20743        -5.65316
   H       -0.88067       -10.75662         0.05862
   H        0.50464       -10.82920        -4.50958
   H       -1.10699       -12.73941        -5.19601
   H       -2.45577       -14.67277        -4.14490
   H       -3.35147       -16.47317        -2.24530
   H       -3.70736       -17.59244         0.05447
   H       -3.41612       -17.12533         2.55402
   H       -2.80875       -15.86343         4.40381
   H        1.90118       -12.90631         1.51215
   H        0.27025       -11.50771         6.03830
   H        3.62645       -10.70165         1.73607
*
