# ORCA input file
# SCF done       -143.248621406235          0.000295016402
! CAM-B3LYP def2-SVP def2/J RIJCOSX Grid4 TightSCF
%maxcore 5000
%tddft
    Mode sTDDFT
    Ethresh 5.0
    maxcore 5000
end

%pal
  nprocs 6
  end
* xyz 0 1
   C        1.01292        -2.67622         4.13513
   O        0.87587        -3.97954         4.39466
   C        0.84688        -4.62359         3.21357
   C        0.96465        -3.74625         2.18667
   C        1.07581        -2.44920         2.77826
   C        1.21916        -1.21347         2.06569
   C        1.34183         0.00593         2.63061
   C        1.48906         1.19765         1.86659
   C        1.60670         2.42557         2.42741
   C        1.76594         3.66001         1.73945
   S        1.29088         5.11449         2.56118
   C        1.66961         6.04628         1.15450
   N        1.48126         7.43338         1.19105
   O        1.74819         8.06529         0.18434
   O        1.06134         7.90945         2.23167
   C        2.14976         5.28648         0.11935
   C        2.22781         3.91878         0.43908
   C        2.81322         2.92699        -0.42354
   C        2.92535         3.03978        -1.75978
   C        3.54053         2.05907        -2.59435
   C        3.70876         2.12702        -3.94850
   C        4.36331         1.00064        -4.50259
   C        4.69661         0.03961        -3.50969
   S        4.18622         0.56490        -1.92875
   C        5.34437        -1.13751        -3.80420
   C        5.68151        -1.37973        -5.13793
   C        5.34475        -0.42066        -6.12895
   C        4.69557         0.75611        -5.83530
   S        5.86092        -0.94468        -7.70684
   C        6.53143        -2.43251        -7.04877
   C        6.34914        -2.49465        -5.68908
   C        7.19397        -3.42260        -7.82644
   S        7.93310        -4.73630        -6.95003
   C        8.47873        -5.43292        -8.43388
   N        9.21106        -6.62898        -8.38021
   O        9.59822        -7.10206        -9.43202
   O        9.40584        -7.10757        -7.27677
   C        8.11703        -4.71103        -9.53490
   C        7.37568        -3.54888        -9.21750
   C        6.87119        -2.64379       -10.19758
   C        7.02262        -2.77221       -11.54338
   C        6.49263        -1.84711       -12.46096
   C        6.60719        -1.95344       -13.82184
   C        6.09106        -1.05156       -14.79012
   C        6.34334        -1.40443       -16.07667
   C        7.07626        -2.61094       -16.21071
   S        7.43534        -3.27657       -14.62841
   C        7.47682        -3.22894       -17.37058
   C        7.24261        -2.79130       -18.70602
   C        7.75136        -3.60558       -19.65546
   C        8.43389        -4.76015       -19.14328
   S        8.37923        -4.72946       -17.37324
   C        9.03222        -5.73496       -19.84027
   H        1.05260        -2.01168         4.97496
   H        0.74066        -5.68982         3.23880
   H        0.97424        -3.97045         1.14006
   H        1.23067        -1.29754         0.98646
   H        1.33947         0.10396         3.70710
   H        1.47134         1.08942         0.79169
   H        1.51803         2.50806         3.50381
   H        2.46095         5.72011        -0.81337
   H        3.21275         2.04583         0.06038
   H        2.52247         3.89914        -2.27813
   H        3.37953         2.96397        -4.53861
   H        5.59112        -1.85345        -3.03661
   H        4.45128         1.47175        -6.60407
   H        6.68612        -3.32657        -5.09558
   H        8.38208        -5.01779       -10.52965
   H        6.31551        -1.79081        -9.84074
   H        7.56474        -3.60888       -11.96192
   H        5.95450        -0.99288       -12.07137
   H        5.54865        -0.17072       -14.49449
   H        6.02550        -0.83716       -16.93301
   H        6.70224        -1.88418       -18.91087
   H        7.67406        -3.44019       -20.71541
   H        9.04110        -5.71488       -20.91579
   H        9.51744        -6.56161       -19.35466
*
