# ORCA input file
# SCF done       -151.381042696577          0.000385975164
! CAM-B3LYP def2-SVP def2/J RIJCOSX Grid4 TightSCF
%maxcore 5000
%tddft
    Mode sTDDFT
    Ethresh 5.0
    maxcore 5000
end

%pal
  nprocs 6
  end
* xyz 0 1
   C       -2.11048         4.43190         1.06760
   O       -3.29293         3.81512         1.19334
   C       -3.11715         2.53592         0.81530
   C       -1.83152         2.31778         0.44435
   C       -1.14853         3.56379         0.60544
   C        0.24513         3.79090         0.34636
   C        0.88920         4.95798         0.55692
   C        2.28528         5.19395         0.36823
   C        3.17270         4.34057        -0.20049
   C        4.57810         4.58466        -0.23046
   C        5.49796         3.69583        -0.73759
   O        6.86272         3.86000        -0.57123
   C        7.24296         5.00334         0.05925
   C        6.29225         5.95838         0.52339
   C        6.87055         7.03616         1.10816
   S        8.59020         6.90220         1.10255
   C        8.52365         5.37513         0.30273
   O        4.95231         5.76285         0.39019
   C        5.16217         2.51728        -1.46711
   C        6.02176         1.48148        -1.62929
   C        5.73787         0.32064        -2.38526
   S        4.49106         0.26883        -3.60265
   C        4.80758        -1.41565        -3.94078
   C        5.82028        -1.89368        -3.11512
   C        6.36144        -0.91419        -2.27210
   S        7.63191        -1.19841        -1.08161
   C        9.03631        -1.64272        -2.17162
   C        9.05765        -3.09906        -2.61101
   C        8.05943        -3.42520        -3.71146
   S        6.32615        -3.58271        -3.14043
   C        4.10581        -2.13293        -4.92786
   C        3.39711        -1.55917        -5.94584
   C        2.69668        -2.29328        -6.90976
   C        2.19682        -1.76815        -8.07974
   C        1.42586        -2.44335        -9.05407
   C        1.13498        -1.69350       -10.15498
   C        1.69064        -0.39608       -10.12133
   S        2.53304        -0.12937        -8.61410
   C        1.67943         0.55651       -11.12635
   C        1.01514         0.50195       -12.36978
   C        1.25492         1.57961       -13.16705
   C        2.14146         2.53527       -12.60589
   S        2.61883         2.02698       -10.99806
   C        2.56163         3.67604       -13.24386
   C        3.50074         4.62596       -12.80188
   S        3.80449         6.05407       -13.78587
   C        5.00614         6.69215       -12.73441
   C        5.18404         5.85665       -11.65867
   C        4.33817         4.70277       -11.70100
   O        4.57142         3.90797       -10.63464
   C        5.53875         4.53395        -9.91637
   N        5.98624         3.90776        -8.73185
   O        6.85160         4.49331        -8.10376
   O        5.49321         2.84398        -8.42165
   C        5.95573         5.71375       -10.47344
   H       -2.07298         5.46994         1.33070
   H       -3.97240         1.89096         0.85666
   H       -1.40391         1.39838         0.10071
   H        0.78753         2.92999        -0.01800
   H        0.32198         5.79320         0.94479
   H        2.66103         6.13690         0.74057
   H        2.83979         3.40257        -0.61064
   H        6.39206         7.89155         1.53655
   H        9.42191         4.84789         0.05958
   H        4.18042         2.46347        -1.91157
   H        6.97136         1.48974        -1.11172
   H        9.01781        -0.96358        -3.02427
   H        9.91246        -1.42457        -1.56132
   H        8.86838        -3.74132        -1.74819
   H       10.06060        -3.32455        -2.98674
   H        8.27879        -4.40436        -4.13675
   H        8.07535        -2.67938        -4.50647
   H        4.20304        -3.21022        -4.88715
   H        3.40259        -0.47990        -6.04122
   H        2.55023        -3.35255        -6.74046
   H        1.10980        -3.46188        -8.91105
   H        0.56411        -2.04664       -10.99495
   H        0.37853        -0.32089       -12.64169
   H        0.83863         1.71560       -14.14960
   H        2.13135         3.87085       -14.21731
   H        5.49389         7.61431       -12.96963
   H        6.70756         6.36620       -10.08097
*
