# ORCA input file
# SCF done       -156.373729443923          0.000989938514
! CAM-B3LYP def2-SVP def2/J RIJCOSX Grid4 TightSCF
%maxcore 5000
%tddft
    Mode sTDDFT
    Ethresh 5.0
    maxcore 5000
end

%pal
  nprocs 6
  end
* xyz 0 1
   C        0.35151         0.73903         4.25230
   C        0.31430         0.47519         2.85780
   C        1.05327         1.25621         1.99505
   C        1.84527         2.30498         2.49294
   C        1.88050         2.55964         3.89316
   C        1.11146         1.75121         4.75771
   N        2.63950         3.55599         4.39074
   C        3.33215         4.26353         3.53905
   C        3.29694         4.01214         2.15155
   N        2.57091         3.05723         1.63603
   C       -0.49636        -0.63311         2.40119
   N       -0.71429        -0.95540         1.08289
   C       -1.49582        -2.06065         0.97567
   C       -1.80093        -2.48188         2.25378
   C       -1.17122        -1.57393         3.14279
   S       -1.53940        -2.09775         4.79949
   O       -2.39038        -1.15278         5.47008
   O       -0.35621        -2.52458         5.49416
   C       -2.49621        -3.53110         4.22078
   C       -2.52656        -3.55445         2.87062
   C       -3.00905        -4.38411         5.22395
   C       -3.63962        -5.56904         5.03827
   C       -4.06220        -6.39815         6.10745
   S       -3.85730        -5.93177         7.76665
   C       -4.52020        -7.42977         8.33025
   C       -4.89121        -8.24972         7.26559
   C       -4.63821        -7.66173         6.01923
   S       -4.96155        -8.36692         4.44213
   C       -5.76518        -9.92511         4.65967
   O       -6.08793       -10.50867         3.66146
   C       -6.03844       -10.55115         6.01045
   O       -6.57790       -11.62443         6.05554
   S       -5.58967        -9.83230         7.55979
   C       -4.59974        -7.75346         9.70889
   O       -4.94685        -9.00815        10.06177
   C       -4.90259        -9.10992        11.41399
   C       -4.53496        -7.88353        11.94899
   C       -4.34429        -7.01698        10.86492
   C       -3.96415        -5.58422        10.97854
   F       -4.82278        -4.76539        10.34168
   F       -3.93468        -5.17956        12.25450
   F       -2.74536        -5.32049        10.47072
   C       -5.18700       -10.35425        12.02299
   C       -5.02511       -10.58839        13.35635
   C       -5.25555       -11.82298        13.98053
   C       -4.99403       -12.06182        15.30696
   C       -5.17004       -13.28147        16.01011
   C       -4.78789       -13.23815        17.31381
   C       -4.28460       -11.97863        17.72436
   S       -4.33499       -10.84530        16.38765
   C       -3.79863       -11.61994        18.95966
   C       -3.68242       -12.44275        20.11651
   C       -3.15243       -11.81925        21.19110
   C       -2.80430       -10.44453        20.96703
   S       -3.20805       -10.00798        19.29878
   C       -2.26500        -9.58173        21.83823
   H       -0.23919         0.11965         4.90902
   H        1.06860         1.09407         0.92788
   H        1.14685         1.95822         5.81532
   H        3.93819         5.06042         3.94880
   H        3.87426         4.61041         1.45891
   H       -0.34840        -0.43301         0.30295
   H       -1.77339        -2.46241         0.02168
   H       -3.03760        -4.30098         2.28335
   H       -2.82999        -4.03676         6.23462
   H       -3.82099        -5.94724         4.04167
   H       -4.42352        -7.63196        12.98277
   H       -5.51240       -11.14523        11.36283
   H       -4.67077        -9.78438        13.98773
   H       -5.64021       -12.64190        13.38794
   H       -5.57083       -14.15222        15.52176
   H       -4.84876       -14.07201        17.98994
   H       -3.99818       -13.47090        20.10581
   H       -2.98717       -12.27714        22.15027
   H       -2.03600        -9.88708        22.84394
   H       -2.04171        -8.56680        21.56399
*
