# ORCA input file
# SCF done       -177.660142556834          0.000550384341
! CAM-B3LYP def2-SVP def2/J RIJCOSX Grid4 TightSCF
%maxcore 5000
%tddft
    Mode sTDDFT
    Ethresh 5.0
    maxcore 5000
end

%pal
  nprocs 6
  end
* xyz 0 1
   C       12.98203        -1.65713         4.12938
   S       12.21464        -2.51460         2.86559
   C       13.53808        -3.64313         2.72543
   C       14.54200        -3.32593         3.66364
   C       14.21157        -2.18803         4.45878
   C       15.11311        -1.72908         5.44911
   C       16.29810        -2.37952         5.63817
   O       17.24928        -2.04279         6.54739
   C       17.01410        -0.92913         7.37122
   C       16.63136        -3.52876         4.83724
   O       17.83758        -4.07759         5.13195
   C       18.25565        -5.20539         4.40602
   C       15.76681        -3.98287         3.87571
   C       13.55343        -4.68891         1.80116
   C       12.59625        -5.01178         0.86483
   C       12.67123        -6.08388        -0.05282
   C       11.59621        -6.18698        -0.88824
   C       10.61514        -5.20122        -0.67460
   S       11.09557        -4.13639         0.62958
   C        9.42046        -5.01683        -1.35522
   C        8.90178        -5.76436        -2.42697
   C        7.70022        -5.30246        -2.88862
   C        7.21362        -4.16944        -2.20671
   S        8.32952        -3.71149        -0.93936
   C        6.03922        -3.49753        -2.49747
   C        5.54696        -2.35337        -1.88727
   S        6.40744        -1.50505        -0.64055
   C        5.27937        -0.17904        -0.60995
   C        4.25849        -0.37639        -1.57373
   C        4.36341        -1.63986        -2.22457
   C        3.34997        -2.06276        -3.10575
   C        3.24074        -3.45579        -3.62940
   O        3.28455        -3.73351        -4.80331
   C        2.91935        -4.46931        -2.55513
   C        2.33328        -1.18906        -3.42813
   C        2.27967         0.08610        -2.86139
   C        3.20774         0.48334        -1.93503
   C        5.47605         0.76476         0.41018
   C        4.70518         1.85210         0.69647
   C        4.83561         2.66830         1.83675
   S        6.30255         2.67425         2.79148
   C        5.70181         3.97245         3.77744
   O        6.43219         4.46475         4.78340
   C        7.69232         3.87780         5.01987
   C        4.43226         4.37771         3.41777
   C        3.64852         5.41688         4.09802
   O        2.47113         5.59923         3.86206
   C        4.37484         6.25842         5.11634
   C        3.92197         3.60548         2.31500
   C        2.61652         3.76867         1.75352
   C        1.90526         2.75980         1.19235
   C        0.69576         2.90386         0.47302
   S        0.02963         4.45918         0.10940
   C       -1.15912         3.80982        -0.96909
   C       -1.07247         2.41569        -1.01815
   C       -0.03370         1.89516        -0.17585
   C        0.17190         0.49400        -0.11321
   C        1.08338        -0.17310         0.86022
   O        2.00112        -0.88408         0.52500
   C        0.65422        -0.01785         2.30223
   C       -0.57861        -0.32581        -0.92012
   C       -1.61222         0.18496        -1.72379
   C       -1.88203         1.52236        -1.75288
   C       -2.00750         4.74342        -1.65374
   C       -2.61890         4.57187        -2.82592
   H       12.49437        -0.80859         4.56588
   H       14.83612        -0.86685         6.03315
   H       16.12585        -1.07141         7.99585
   H       16.89988        -0.01172         6.78405
   H       17.89294        -0.84292         8.00794
   H       19.23305        -5.46778         4.80749
   H       18.35088        -4.98415         3.33754
   H       17.57017        -6.04880         4.54201
   H       16.01355        -4.84214         3.27441
   H       14.42806        -5.32618         1.81729
   H       13.51884        -6.74660        -0.07100
   H       11.49077        -6.94154        -1.64691
   H        9.41898        -6.61401        -2.83510
   H        7.15360        -5.74084        -3.70510
   H        5.46790        -3.89410        -3.32547
   H        3.07561        -5.48027        -2.92331
   H        1.86693        -4.34881        -2.29879
   H        3.50349        -4.29205        -1.65711
   H        1.56081        -1.50760        -4.11231
   H        1.47802         0.75406        -3.13952
   H        3.12303         1.46555        -1.50424
   H        6.29647         0.54114         1.08443
   H        3.90366         2.13013         0.03583
   H        8.11783         4.41059         5.86775
   H        8.34458         3.98376         4.14760
   H        7.59189         2.81486         5.25970
   H        4.66940         5.63877         5.96012
   H        3.71146         7.04790         5.46080
   H        5.27548         6.68886         4.68690
   H        2.17694         4.75406         1.82139
   H        2.27816         1.74766         1.26324
   H        1.48197        -0.24250         2.97039
   H       -0.13959        -0.74359         2.48202
   H        0.25907         0.97333         2.50263
   H       -0.40239        -1.39098        -0.89311
   H       -2.21241        -0.50248        -2.30075
   H       -2.71582         1.90154        -2.31995
   H       -2.09717         5.70191        -1.15567
   H       -2.51345         3.67881        -3.41481
   H       -3.22634         5.35326        -3.24787
*
