# ORCA input file
# SCF done       -193.816603467579          0.000977223237
! CAM-B3LYP def2-SVP def2/J RIJCOSX Grid4 TightSCF
%maxcore 5000
%tddft
    Mode sTDDFT
    Ethresh 5.0
    maxcore 5000
end

%pal
  nprocs 6
  end
* xyz 0 1
   C       -5.32103        -3.43060        -0.00452
   C       -4.05527        -3.03474         0.32707
   C       -3.06335        -3.62477        -0.53350
   C       -3.58606        -4.45385        -1.47019
   S       -5.30238        -4.50665        -1.33947
   C       -1.73228        -3.14851        -0.15703
   O       -0.65005        -3.57641        -0.46772
   C       -2.01925        -2.04159         0.82265
   C       -3.39039        -2.21388         1.31799
   C       -3.85576        -1.75464         2.51184
   N       -5.21617        -1.83017         2.96258
   O       -6.08821        -1.86883         2.12175
   O       -5.39170        -1.85778         4.15858
   N       -2.95534        -1.19616         3.51741
   O       -1.96750        -1.83857         3.78041
   O       -3.26522        -0.13338         3.99299
   C       -1.19873        -0.99335         1.05189
   C       -0.02389        -0.72304         0.27737
   C        0.11912        -0.84828        -1.09754
   C       -0.97260        -1.19117        -1.91440
   N       -1.91332        -1.42477        -2.52697
   C        1.40453        -0.45347        -1.54385
   C        2.19358        -0.01532        -0.48053
   S        1.39662        -0.06188         1.04063
   S        3.79068         0.49433        -0.91500
   C        3.40360         0.11232        -2.56260
   C        2.12343        -0.38230        -2.77135
   C        1.90035        -0.67954        -4.14463
   C        0.70255        -1.19067        -4.67455
   N       -0.26269        -1.61409        -5.12471
   C        2.99224        -0.37673        -4.93645
   S        4.33560         0.24193        -3.99922
   C        3.09882        -0.55598        -6.35628
   S        2.45765        -1.97836        -7.10743
   C        2.93464        -1.41690        -8.68573
   C        3.58746        -0.19868        -8.60922
   C        3.67719         0.28438        -7.28754
   C        4.27923         1.62154        -6.93388
   C        3.37362         2.34035        -6.06269
   N        2.63983         2.91065        -5.39761
   C        4.55345         2.45494        -8.19442
   C        5.21963         1.57618        -9.24226
   C        4.21519         0.54083        -9.76987
   O        4.76239        -0.30225       -10.75933
   C        5.81424        -1.15284       -10.36151
   C        2.60532        -2.25957        -9.79423
   C        2.41814        -1.85855       -11.06634
   C        2.12973        -2.73990       -12.16463
   C        2.33928        -4.13585       -12.14234
   N        2.24657        -4.85960       -13.22500
   C        1.86364        -4.27954       -14.37304
   C        1.52988        -2.91283       -14.35941
   N        1.70181        -2.16662       -13.29656
   C        1.75677        -5.06417       -15.56577
   C        2.00085        -6.38437       -15.74622
   C        2.54614        -7.41257       -14.86531
   C        3.50694        -7.25009       -13.91295
   N        3.94564        -8.33157       -13.06642
   O        5.13168        -8.43295       -12.86292
   O        3.09272        -9.07700       -12.63236
   N        4.27935        -6.03926       -13.73475
   O        4.45967        -5.34403       -14.71022
   O        4.74436        -5.83923       -12.63594
   C        2.03176        -8.67845       -15.36398
   C        2.00138        -9.99181       -14.99621
   S        1.28716       -10.96537       -16.21967
   C        1.00912        -9.61020       -17.24643
   C        1.44501        -8.46747       -16.65918
   C        1.45462        -7.03769       -16.98197
   O        1.05854        -6.47811       -17.97340
   H       -6.25504        -3.13390         0.42941
   H       -3.07678        -5.01004        -2.23113
   H       -1.42053        -0.26041         1.81745
   H        5.22136         1.46379        -6.39041
   H        5.19348         3.29997        -7.93655
   H        3.61270         2.84961        -8.58559
   H        6.07838         1.06715        -8.79994
   H        5.57200         2.17665       -10.08139
   H        3.42034         1.08067       -10.30608
   H        5.91893        -1.88569       -11.15925
   H        5.58657        -1.67418        -9.42684
   H        6.75784        -0.60823       -10.25302
   H        2.44551        -3.29702        -9.52914
   H        2.47196        -0.81685       -11.33864
   H        2.67150        -4.66046       -11.25793
   H        1.13441        -2.42176       -15.23825
   H        1.34178        -4.55037       -16.42602
   H        2.31383       -10.44829       -14.07788
   H        0.54858        -9.74017       -18.20514
*
