# ORCA input file
# SCF done       -169.096844492957          0.000219022979
! CAM-B3LYP def2-SVP def2/J RIJCOSX Grid4 TightSCF
%maxcore 5000
%tddft
    Mode sTDDFT
    Ethresh 5.0
    maxcore 5000
end

%pal
  nprocs 6
  end
* xyz 0 1
   C       11.00543       -11.28148         7.07583
   C       10.51596       -10.60408         6.00132
   C        9.80716       -11.46276         5.09543
   C        9.77871       -12.75903         5.48788
   S       10.61278       -12.95711         6.98653
   C        9.29930       -10.67330         3.96717
   O        8.64082       -11.07626         3.02705
   C        9.70961        -9.29043         4.25751
   C       10.54605        -9.26714         5.42941
   C       11.33782        -8.20825         5.81956
   N       11.99292        -8.12254         7.07676
   O       12.99240        -7.43674         7.14834
   O       11.51883        -8.75251         8.00663
   N       11.64436        -7.11818         4.92053
   O       11.92617        -7.41051         3.77632
   O       11.59796        -5.99492         5.36571
   C        9.21121        -8.16613         3.61787
   C        8.51087        -8.05920         2.42397
   S        8.19111        -9.37577         1.29319
   C        7.51927        -8.27098         0.18086
   C        7.49442        -6.94004         0.67081
   C        8.04878        -6.82279         1.91661
   C        6.88924        -6.09434        -0.37594
   O        6.66508        -4.90898        -0.36541
   C        6.60132        -7.05292        -1.50721
   C        6.97703        -8.33168        -1.11199
   C        6.08495        -6.60276        -2.72695
   C        5.90973        -7.41045        -3.82552
   C        5.47534        -6.95800        -5.08208
   C        5.41187        -7.77435        -6.21980
   O        5.08526        -7.27573        -7.45619
   C        4.80370        -5.94390        -7.51359
   C        4.83535        -5.12077        -6.35233
   C        4.51767        -3.82808        -6.61539
   S        4.17530        -3.59977        -8.28825
   C        4.46344        -5.26125        -8.63621
   O        5.16186        -5.61889        -5.12988
   C        5.70238        -9.15215        -6.20795
   C        5.82280        -9.92100        -7.33758
   C        6.14362       -11.28464        -7.31548
   S        6.54414       -12.12202        -8.81732
   C        6.87642       -13.56880        -7.95924
   C        6.64693       -13.41221        -6.57535
   C        6.24648       -12.14591        -6.21547
   C        6.94836       -14.70323        -5.93399
   O        6.85650       -15.01316        -4.77065
   C        7.41808       -15.58363        -7.06699
   C        7.34148       -14.85831        -8.25432
   C        7.86215       -16.87703        -6.80654
   C        8.45315       -17.73506        -7.71228
   C        8.91330       -18.99646        -7.36322
   C        9.59713       -19.85148        -8.20979
   C       10.09697       -21.13129        -7.89040
   C       10.77225       -21.74025        -8.90813
   C       10.84131       -20.96709       -10.08701
   S       10.00368       -19.44591        -9.86323
   C       11.47317       -21.28460       -11.27347
   C       12.19670       -22.47170       -11.56965
   C       12.72913       -22.50244       -12.81294
   C       12.46302       -21.33251       -13.59775
   S       11.48796       -20.20238       -12.64396
   C       12.86108       -21.07393       -14.85158
   H       11.53481       -10.91122         7.93048
   H        9.33389       -13.60282         4.99981
   H        9.35456        -7.21422         4.11782
   H        8.15518        -5.90429         2.46596
   H        6.88742        -9.23142        -1.69198
   H        5.85708        -5.54813        -2.79589
   H        6.16068        -8.45248        -3.73185
   H        4.46693        -3.00929        -5.92895
   H        4.36653        -5.63727        -9.63301
   H        5.86051        -9.61634        -5.25118
   H        5.71135        -9.45030        -8.30384
   H        6.02614       -11.84484        -5.20819
   H        7.59507       -15.21803        -9.23415
   H        7.76094       -17.20242        -5.77784
   H        8.59614       -17.40897        -8.73427
   H        8.74987       -19.34240        -6.35056
   H        9.94752       -21.56423        -6.91706
   H       11.22106       -22.71434        -8.83648
   H       12.29876       -23.26164       -10.84721
   H       13.30948       -23.31360       -13.21472
   H       13.45472       -21.78625       -15.39672
   H       12.60463       -20.15636       -15.34852
*
