# ORCA input file
# SCF done       -179.049245338583          0.000421600993
! CAM-B3LYP def2-SVP def2/J RIJCOSX Grid4 TightSCF
%maxcore 5000
%tddft
    Mode sTDDFT
    Ethresh 5.0
    maxcore 5000
end

%pal
  nprocs 6
  end
* xyz 0 1
   C       11.74679        -3.61206         0.08829
   C       10.76440        -2.78691        -0.35094
   C       10.37514        -3.06912        -1.70140
   C       11.07950        -4.07553        -2.26856
   S       12.22832        -4.72340        -1.14940
   C        9.25434        -2.18790        -2.06536
   O        8.67825        -2.13065        -3.13895
   C        9.00262        -1.37636        -0.86759
   C        9.88703        -1.73768         0.16437
   C        9.85917        -1.28677         1.49169
   N       10.97255        -1.44547         2.34531
   O       10.77363        -1.58678         3.53939
   O       12.08185        -1.47789         1.83113
   N        8.69216        -0.76104         2.08382
   O        8.79493         0.06925         2.96304
   O        7.61069        -1.18608         1.67259
   C        8.10558        -0.27790        -0.85623
   C        7.00248        -0.07474        -1.64975
   C        6.25265        -1.07969        -2.34711
   O        5.50598        -0.77264        -3.43890
   C        5.33239         0.55572        -3.69231
   C        5.82721         1.55738        -2.80637
   C        5.47262         2.81138        -3.18790
   S        4.53657         2.78317        -4.63451
   C        4.62068         1.06857        -4.72968
   O        6.59670         1.25087        -1.73230
   C        6.24058        -2.40817        -1.96292
   C        6.69370        -2.79478        -0.69920
   C        7.33754        -3.93824        -0.29470
   S        7.84549        -4.00830         1.38173
   C        8.84770        -5.39354         1.13032
   C        8.80966        -5.80303        -0.23055
   C        7.93659        -5.00905        -1.02513
   C        7.81107        -5.24595        -2.39217
   C        8.54382        -6.25162        -2.99172
   S        8.50903        -6.62166        -4.70147
   C        7.34462        -5.43072        -5.44791
   C        7.96776        -4.07180        -5.70103
   C        9.42216        -7.03073        -2.20548
   S       10.43372        -8.27292        -2.97641
   C        9.16536        -9.56546        -3.31776
   C        9.38121       -10.17518        -4.68709
   C        9.56940        -6.79740        -0.86212
   C        9.54806        -5.88581         2.24295
   C       10.17374        -7.09785         2.36363
   C       10.86905        -7.52880         3.50274
   S       11.51129        -9.17638         3.51930
   C       12.13262        -8.94961         5.09173
   C       11.86221        -7.65718         5.58014
   C       11.15963        -6.86254         4.69644
   C       12.43442        -7.58133         6.93638
   O       12.42880        -6.66602         7.71931
   C       13.04805        -8.95024         7.16511
   C       12.84076        -9.72116         6.03726
   C       13.67839        -9.23843         8.38371
   C       14.23734       -10.43970         8.72639
   C       14.85305       -10.70924         9.95699
   S       14.99497        -9.48474        11.20382
   C       15.78695       -10.58607        12.24590
   C       15.94755       -11.82166        11.70411
   C       15.42101       -11.92046        10.39194
   N       15.42568       -13.05445         9.65371
   C       16.09634       -14.27292        10.04274
   C       15.78766       -15.37540         9.04233
   H       12.26191        -3.63274         1.02669
   H       11.00467        -4.49515        -3.25143
   H        8.39567         0.58302        -0.26271
   H        5.70434         3.73699        -2.70481
   H        4.14270         0.53894        -5.52685
   H        5.83829        -3.11325        -2.67309
   H        6.61420        -2.03719         0.07345
   H        7.18220        -4.60248        -2.97721
   H        6.45775        -5.38031        -4.81748
   H        7.07141        -5.91104        -6.38893
   H        8.26406        -3.57636        -4.77907
   H        7.24922        -3.43438        -6.21296
   H        8.84682        -4.17569        -6.33338
   H        8.19204        -9.08478        -3.24542
   H        9.26268       -10.31269        -2.52993
   H        9.29548        -9.41059        -5.45495
   H        8.63525       -10.94597        -4.87035
   H       10.37010       -10.62233        -4.75130
   H       10.30754        -7.36876        -0.32769
   H        9.53606        -5.23373         3.10623
   H       10.10764        -7.81688         1.56158
   H       10.86976        -5.84620         4.89019
   H       13.15517       -10.73702         5.88411
   H       13.70250        -8.42586         9.09926
   H       14.19934       -11.24825         8.00710
   H       16.09968       -10.25730        13.21744
   H       16.42852       -12.63218        12.21912
   H       15.15970       -12.98174         8.68508
   H       15.74263       -14.56643        11.03649
   H       17.18270       -14.11416        10.10055
   H       14.71521       -15.54600         8.98459
   H       16.26795       -16.30002         9.34895
   H       16.15554       -15.11063         8.05316
*
