# ORCA input file
# SCF done       -194.455199405163          0.000791080722
! CAM-B3LYP def2-SVP def2/J RIJCOSX Grid4 TightSCF
%maxcore 5000
%tddft
    Mode sTDDFT
    Ethresh 5.0
    maxcore 5000
end

%pal
  nprocs 6
  end
* xyz 0 1
   C       -9.50119         0.21233         1.79521
   C       -9.99635         1.16266         2.67303
   C      -11.21300         0.90641         3.30591
   C      -11.73846         1.85419         4.21959
   N      -12.15726         2.62302         4.95702
   C      -11.93103        -0.28020         3.05521
   C      -13.16868        -0.50499         3.70492
   N      -14.17263        -0.70295         4.21887
   C      -11.42534        -1.23559         2.17164
   C      -10.21441        -0.98086         1.56437
   C       -9.46064        -1.83284         0.61068
   O       -9.87181        -2.80029         0.02080
   C       -8.14272        -1.15581         0.45737
   C       -8.28932         0.19420         0.98463
   C       -7.52640         1.27755         0.65518
   C       -7.75701         2.58036         1.14882
   N       -7.89287         3.66363         1.50111
   C       -6.47368         1.27426        -0.28501
   N       -5.63042         1.39148        -1.05675
   C       -6.99278        -1.65366        -0.05192
   C       -6.72596        -2.96014        -0.57302
   C       -7.30836        -4.16358        -0.25937
   F       -8.11628        -4.41090         0.75846
   S       -6.76169        -5.49235        -1.21181
   C       -5.70098        -4.40018        -2.05988
   F       -4.92098        -4.87959        -3.02365
   C       -5.74190        -3.12298        -1.61617
   C       -4.86288        -2.03490        -2.07940
   C       -4.98906        -1.48211        -3.31961
   C       -4.10406        -0.44645        -3.70448
   C       -4.00791         0.27016        -4.88614
   C       -4.87583         0.11575        -6.08841
   C       -5.43690         1.45626        -6.59809
   N       -6.75149         1.23703        -7.17072
   C       -4.12216        -0.64257        -7.19910
   N       -3.96889        -2.02944        -6.80765
   C       -2.85983         1.14114        -4.75077
   C       -2.27943         2.00520        -5.60355
   C       -1.01967         2.72323        -5.26573
   C       -0.52371         2.49410        -3.86983
   C       -1.12484         1.63607        -3.02267
   C       -2.28529         0.93068        -3.41360
   C       -3.05999        -0.02598        -2.78176
   C       -2.97602        -0.61309        -1.50100
   C       -3.86343        -1.58446        -1.16122
   C       -1.10920         4.19325        -5.59465
   C       -2.20683         4.91914        -5.39599
   C       -2.35063         6.30972        -5.79823
   C       -1.77750         6.85181        -6.91002
   F       -0.95959         6.22850        -7.75524
   S       -2.23908         8.48477        -7.25771
   C       -3.27644         8.43272        -5.88520
   F       -3.98079         9.50585        -5.55340
   C       -3.23148         7.26318        -5.17105
   C       -3.99349         7.07036        -3.96810
   C       -3.66580         6.35759        -2.86716
   C       -4.72749         6.01312        -1.87146
   O       -5.84493         6.46104        -1.82444
   C       -4.12279         4.96868        -1.01508
   C       -4.71205         4.23923        -0.00465
   C       -3.94920         3.25213         0.62215
   C       -2.61136         3.03716         0.23452
   C       -2.00978         3.81568        -0.75230
   C       -2.77535         4.77919        -1.38712
   C       -2.42878         5.73424        -2.43233
   C       -1.15733         6.13073        -2.75150
   C       -0.85305         7.25523        -3.54519
   N       -0.53897         8.18964        -4.13258
   C        0.00940         5.52430        -2.24264
   N        0.99246         5.05485        -1.88153
   C       -1.87061         1.99637         0.84419
   N       -1.26733         1.14118         1.30963
   C       -4.52319         2.43636         1.62285
   N       -5.01178         1.75956         2.40857
   H       -9.46648         2.07743         2.88809
   H      -11.96298        -2.15063         1.97489
   H       -6.14479        -0.98249        -0.12566
   H       -5.74662        -1.83041        -4.00464
   H       -5.73753        -0.49800        -5.81360
   H       -4.72655         1.91585        -7.30697
   H       -5.56000         2.13956        -5.75247
   H       -6.69471         0.61467        -7.96942
   H       -7.16260         2.10989        -7.48098
   H       -3.16473        -0.12983        -7.40093
   H       -4.71496        -0.62731        -8.11858
   H       -3.42594        -2.09956        -5.95344
   H       -3.49682        -2.56209        -7.52881
   H       -2.67818         2.19893        -6.58898
   H       -0.24944         2.30949        -5.93953
   H        0.37178         3.02729        -3.59037
   H       -0.71330         1.45365        -2.04020
   H       -2.21074        -0.29852        -0.80774
   H       -3.81087        -2.05639        -0.19072
   H       -0.21717         4.65117        -5.99607
   H       -3.08181         4.47310        -4.93816
   H       -4.97255         7.53962        -3.94806
   H       -5.73531         4.42263         0.28688
   H       -0.97767         3.64588        -1.01124
*
