# ORCA input file
# SCF done       -227.790443198198          0.001904331147
! CAM-B3LYP def2-SVP def2/J RIJCOSX Grid4 TightSCF
%maxcore 5000
%tddft
    Mode sTDDFT
    Ethresh 5.0
    maxcore 5000
end

%pal
  nprocs 6
  end
* xyz 0 1
   C        9.61242        -1.45179         3.52348
   C       10.60669        -0.95937         4.35422
   C       10.73809         0.42380         4.48509
   C       11.72950         0.95514         5.34730
   N       12.53200         1.39088         6.03716
   C        9.88103         1.30643         3.79800
   C        9.96200         2.70040         4.03195
   N        9.97573         3.82648         4.23785
   C        8.91760         0.80825         2.92116
   C        8.80446        -0.56106         2.78701
   C        7.88621        -1.31769         1.91401
   O        7.09940        -0.86042         1.11737
   C        8.17849        -2.75582         2.19109
   C        9.17962        -2.81835         3.25360
   C        9.56219        -3.93121         3.93959
   C       10.51381        -3.92975         4.98663
   N       11.28304        -3.99199         5.83387
   C        9.03062        -5.22498         3.72727
   N        8.62746        -6.29273         3.61889
   C        7.68334        -3.78751         1.48454
   C        6.70407        -3.66228         0.41761
   C        5.46470        -3.04174         0.56767
   C        4.86459        -2.38499         1.75770
   O        5.31286        -2.25306         2.86685
   N        3.61864        -1.91487         1.33969
   C        3.35198        -2.21209         0.00337
   O        2.35959        -1.92536        -0.60787
   C        4.54907        -2.95522        -0.48028
   C        4.79525        -3.49371        -1.73114
   C        6.02186        -4.12821        -1.88910
   C        6.94935        -4.20485        -0.85278
   C        8.22467        -4.85086        -1.21579
   O        9.19375        -4.96951        -0.52450
   S        8.12316        -5.43038        -2.90622
   C        6.46393        -4.76448        -3.14899
   O        5.86511        -4.84837        -4.17420
   C        2.79218        -1.22890         2.23209
   C        1.68108        -0.56202         1.91190
   C        0.89900         0.14011         2.90936
   C       -0.46028         0.22046         2.88350
   S       -1.14854         0.98447         4.26751
   C        0.42903         1.24588         4.93513
   C        1.44180         0.77337         4.08104
   C        2.78119         1.00024         4.40939
   C        3.12820         1.58049         5.61073
   C        2.11675         1.97027         6.51983
   C        0.76706         1.82951         6.15046
   S       -0.29856         2.41180         7.38684
   C        1.04797         2.79067         8.39625
   C        2.24248         2.50976         7.83016
   C        4.53855         1.80489         5.91893
   C        5.03269         3.06828         6.25808
   C        4.32232         4.36679         6.31937
   O        3.18202         4.64310         6.07181
   N        5.28925         5.30702         6.73033
   C        6.55703         4.73126         6.90038
   O        7.54476         5.29383         7.27800
   C        6.37706         3.29550         6.55797
   C        7.31797         2.28326         6.52468
   C        6.84257         1.02358         6.17543
   C        5.50059         0.77783         5.88094
   C        5.19709        -0.64628         5.62194
   O        4.14370        -1.17542         5.46086
   S        6.74292        -1.58590         5.64337
   C        7.71260        -0.16822         6.11916
   O        8.88842        -0.21192         6.34282
   C        4.94894         6.63501         6.88692
   C        5.81120         7.63330         7.14424
   C        5.37645         8.98079         7.27799
   C        6.16846        10.08269         7.25035
   C        5.67556        11.38225         7.78069
   O        4.53521        11.68148         8.03695
   C        6.89640        12.19819         7.98099
   C        7.00918        13.44101         8.56775
   C        8.28198        14.00164         8.68274
   C        9.40963        13.30013         8.21331
   C        9.28383        12.04732         7.61041
   C        8.01807        11.49907         7.49027
   C        7.56523        10.24257         6.89147
   C        8.25952         9.50204         5.97530
   C        7.68620         8.46874         5.19990
   N        7.24378         7.67068         4.50507
   C        9.59447         9.77652         5.60242
   N       10.67624         9.97255         5.27834
   C       10.69626        13.87601         8.36220
   N       11.73932        14.33105         8.48467
   C        8.44115        15.27577         9.27980
   N        8.54969        16.30691         9.76545
   H       11.26377        -1.60561         4.91341
   H        8.27255         1.47443         2.36737
   H        8.05245        -4.79069         1.65574
   H        4.08431        -3.42474        -2.53901
   H        3.14986        -1.31032         3.24998
   H        1.30095        -0.56515         0.90169
   H       -1.11625        -0.17067         2.13033
   H        3.55062         0.76047         3.69317
   H        0.86295         3.20693         9.36706
   H        3.18472         2.66762         8.32515
   H        8.35681         2.45420         6.75899
   H        3.89216         6.81321         6.72639
   H        6.86189         7.41762         7.26302
   H        4.32680         9.15478         7.48797
   H        6.13700        13.96360         8.93008
   H       10.16816        11.53450         7.26623
*
