# ORCA input file
# SCF done       -249.515298364658          0.000825830026
! CAM-B3LYP def2-SVP def2/J RIJCOSX Grid4 TightSCF
%maxcore 5000
%tddft
    Mode sTDDFT
    Ethresh 5.0
    maxcore 5000
end

%pal
  nprocs 6
  end
* xyz 0 1
   C       13.07863         0.30331        -6.24526
   C       14.36834         0.20792        -6.68979
   F       14.60386        -0.00448        -7.99430
   C       15.47038         0.32447        -5.83007
   C       15.25181         0.54069        -4.49812
   C       13.94224         0.64654        -3.98500
   C       12.83411         0.52788        -4.87626
   C       11.51275         0.63986        -4.38818
   C       11.30658         0.86578        -3.05239
   C       12.41808         0.96616        -2.16330
   C       13.70516         0.86249        -2.61017
   C       11.93718         1.15751        -0.78746
   O       12.57105         1.32032         0.22279
   C       10.44245         1.01929        -0.88456
   C       10.07894         1.05168        -2.29469
   C        8.85101         1.36305        -2.80675
   C        7.74604         1.74055        -2.01858
   N        6.82913         2.08043        -1.41688
   C        8.56182         1.40630        -4.18886
   N        8.26877         1.43524        -5.29716
   C        9.73829         0.72515         0.21913
   C        8.36472         0.26687         0.32685
   C        7.47333         0.92440         1.17762
   C        7.70768         2.16176         1.95987
   O        8.72249         2.79178         2.07121
   N        6.47383         2.46008         2.55762
   C        5.48217         1.51022         2.23626
   O        4.35747         1.53279         2.64471
   C        6.14300         0.54124         1.32730
   C        5.61915        -0.55001         0.65857
   C        6.49855        -1.22865        -0.17606
   C        7.82828        -0.84114        -0.35310
   C        8.58070        -1.70375        -1.28958
   O        9.72482        -1.60991        -1.62703
   S        7.49748        -2.98583        -1.91703
   C        6.08696        -2.41335        -0.96112
   O        5.01691        -2.93422        -0.98352
   C        6.16651         3.54891         3.34681
   C        7.02156         4.53233         3.68527
   C        6.64963         5.64681         4.49665
   C        7.60357         6.65543         4.78128
   C        7.25415         7.87309         5.47243
   N        8.24452         8.62429         5.96938
   C        9.48911         8.36628         5.66619
   C        9.79576         7.32094         4.72842
   N        8.86691         6.47471         4.37749
   C       11.11873         7.16141         4.24496
   N       12.19756         7.06844         3.87366
   C       10.53089         9.08650         6.30160
   N       11.39794         9.65046         6.79208
   C        5.90021         8.21827         5.71550
   C        5.01994         7.11219         5.69126
   C        5.38222         5.85073         5.07913
   N        4.39248         4.95856         5.18319
   S        3.18269         5.59966         6.00832
   N        3.81670         7.04474         6.25851
   C        5.50534         9.51807         6.16414
   C        4.19439         9.85115         6.56465
   C        2.88156         9.42985         6.03637
   O        2.59554         8.87244         5.01097
   N        1.92553        10.00020         6.90322
   C        2.50819        10.88861         7.81230
   O        1.93040        11.53914         8.63919
   C        3.95984        10.86081         7.50240
   C        4.97105        11.66559         7.99737
   C        6.19304        11.55345         7.33949
   C        6.43325        10.56886         6.38455
   C        7.60539        10.86473         5.54179
   O        7.78940        10.56483         4.39647
   S        8.62641        12.08931         6.39126
   C        7.33391        12.46476         7.57672
   O        7.41669        13.31939         8.40364
   C        0.58782         9.68958         6.77680
   C       -0.35607         9.98385         7.68623
   C       -1.71202         9.57665         7.54120
   C       -2.62066         9.50848         8.54657
   C       -4.08252         9.44956         8.26397
   O       -4.60497         9.18918         7.20566
   C       -4.73108         9.83296         9.53283
   C       -6.05483        10.04951         9.78741
   C       -6.45296        10.44111        11.08498
   C       -5.46423        10.60897        12.09852
   C       -5.86761        11.00828        13.38752
   C       -7.19440        11.22160        13.63944
   C       -8.18162        11.05933        12.65748
   C       -7.80746        10.67420        11.40033
   F       -7.58179        11.60124        14.86960
   C       -4.10050        10.37090        11.80939
   C       -3.74002         9.98154        10.54758
   C       -2.44201         9.63097         9.97998
   C       -1.33045         9.26092        10.68991
   C       -0.20641         8.62642        10.11963
   N        0.69640         8.04495         9.71314
   C       -1.23609         9.35252        12.09498
   N       -1.10937         9.42028        13.23334
   H       12.25504         0.21157        -6.93591
   H       16.46491         0.24046        -6.23855
   H       16.08439         0.63351        -3.81744
   H       10.69308         0.53203        -5.08078
   H       14.53217         0.94524        -1.92108
   H       10.26685         0.84204         1.16126
   H        4.59044        -0.85691         0.75989
   H        5.13695         3.54816         3.68433
   H        8.04493         4.52981         3.34080
   H        4.80738        12.39734         8.77145
   H        0.37689         9.10056         5.89268
   H       -0.08657        10.54311         8.56972
   H       -2.07595         9.35419         6.54459
   H       -6.79057         9.92351         9.00728
   H       -5.13531        11.13978        14.16868
   H       -9.21283        11.24196        12.91495
   H       -8.54956        10.54314        10.62729
   H       -3.37176        10.51273        12.59183
*
