# ORCA input file
# SCF done       -193.520087058071          0.000544737158
! CAM-B3LYP def2-SVP def2/J RIJCOSX Grid4 TightSCF
%maxcore 5000
%tddft
    Mode sTDDFT
    Ethresh 5.0
    maxcore 5000
end

%pal
  nprocs 6
  end
* xyz 0 1
   C       -5.34450        -9.21258         1.44890
   C       -6.42134        -9.95469         0.98925
   C       -7.56733        -9.33320         0.51053
   C       -7.66740        -7.95042         0.46814
   C       -6.59750        -7.19638         0.92110
   C       -5.43364        -7.82862         1.42129
   C       -4.49262        -6.80844         1.85133
   C       -3.19288        -6.99261         2.23459
   C       -2.56135        -8.25497         2.29703
   N       -1.99612        -9.25009         2.37128
   C       -2.29767        -5.95486         2.57561
   N       -1.52339        -5.15448         2.85657
   C       -5.20392        -5.53005         1.77496
   C       -6.40175        -5.75477         0.96623
   C       -7.06334        -4.82350         0.22356
   C       -6.62492        -3.48883         0.06167
   N       -6.24355        -2.44067        -0.20725
   C       -8.17928        -5.12292        -0.58876
   N       -9.08674        -5.32363        -1.26029
   C       -4.85229        -4.44064         2.50570
   C       -5.60525        -3.26336         2.76349
   N       -6.90446        -3.15463         2.53712
   C       -7.25548        -1.93149         2.99101
   C       -6.10684        -1.21886         3.54980
   C       -6.50824         0.11307         4.01963
   O       -5.82991         0.95965         4.56491
   C       -7.94435         0.15972         3.67688
   C       -8.36280        -1.11907         3.06449
   N       -9.67791        -1.08931         2.74064
   C      -10.08926         0.10422         3.09071
   C       -9.05433         0.93903         3.67770
   C       -5.02608        -2.06040         3.40356
   C       -3.65540        -1.88646         3.71566
   C       -3.17735        -0.78770         4.35691
   C       -1.81402        -0.58013         4.66837
   N       -1.41883         0.52564         5.38882
   C       -0.07102         0.48274         5.54485
   C        1.01617         1.12994         6.10157
   C        2.14921         0.35720         5.76482
   N        1.74830        -0.73653         5.02178
   C        0.40073        -0.69406         4.88404
   C       -0.68749        -1.35993         4.34457
   C        3.47964         0.63938         6.11149
   C        4.59169        -0.03381         5.68225
   C        5.87885         0.32892         6.12027
   N        6.07102         1.27109         7.04960
   C        7.39017         1.33549         7.24483
   C        8.11717         0.40033         6.36994
   C        9.56805         0.48056         6.62306
   O       10.46438        -0.12301         6.06392
   C        9.65543         1.46923         7.69955
   C        8.31451         1.98101         8.04388
   N        8.38971         2.88777         9.03904
   C        9.67099         2.96499         9.33833
   C       10.51311         2.10515         8.54632
   C        7.15431        -0.26090         5.64527
   C        7.29548        -1.27816         4.66392
   C        8.51149        -1.72926         4.26444
   C        8.69039        -2.74520         3.29756
   C        9.88028        -3.36567         3.04424
   C       10.20880        -4.11061         1.83503
   C        9.32825        -4.65781         0.94078
   C        7.92422        -4.63614         1.07650
   N        6.77726        -4.65520         1.13006
   C        9.71174        -5.35406        -0.22508
   N        9.95400        -5.92974        -1.18800
   C       11.66222        -4.15173         1.75422
   C       12.20491        -3.59263         2.93479
   C       13.57580        -3.48640         3.09936
   C       14.40172        -3.94456         2.08383
   C       13.87179        -4.50547         0.93009
   C       12.50107        -4.61542         0.75236
   C       11.10830        -3.24406         3.82539
   C       11.19259        -3.07374         5.17904
   C       12.41263        -3.00079         5.88529
   N       13.37828        -2.93998         6.50135
   C       10.08121        -3.09594         6.05210
   N        9.22311        -3.20174         6.80634
   H       -4.46509        -9.70899         1.82572
   H       -6.36734       -11.03224         1.01003
   H       -8.39521        -9.93388         0.16655
   H       -8.56492        -7.47946         0.10171
   H       -3.91597        -4.49190         3.04237
   H      -11.11478         0.39241         2.93875
   H       -9.18814         1.94485         4.02369
   H       -2.96803        -2.66597         3.42067
   H       -3.87151        -0.01306         4.65811
   H       -2.04953         1.23321         5.72723
   H        1.04036         2.03804         6.66911
   H        2.35787        -1.46217         4.68704
   H       -0.69312        -2.27569         3.78940
   H        3.64475         1.47823         6.77282
   H        4.51139        -0.85609         4.98594
   H       10.00467         3.63121        10.11481
   H       11.57758         2.01451         8.63484
   H        6.39931        -1.72858         4.25804
   H        9.39312        -1.26634         4.68547
   H        7.83917        -2.98271         2.67370
   H       13.99702        -3.04648         3.98864
   H       15.47216        -3.86218         2.19446
   H       14.53449        -4.85855         0.15483
   H       12.10646        -5.04816        -0.15236
*
