# ORCA input file
# SCF done       -203.574072966752          0.000394408192
! CAM-B3LYP def2-SVP def2/J RIJCOSX Grid4 TightSCF
%maxcore 5000
%tddft
    Mode sTDDFT
    Ethresh 5.0
    maxcore 5000
end

%pal
  nprocs 6
  end
* xyz 0 1
   C        3.01397        -3.01199         1.74668
   C        2.33261        -2.58367         2.84826
   C        2.74754        -2.84192         4.17350
   N        3.04879        -3.02868         5.26389
   C        1.20745        -1.73002         2.79421
   N        0.36165        -0.95525         2.82169
   C        4.32745        -3.65059         1.74270
   C        4.90406        -3.51620         0.46357
   C        6.16826        -3.99864         0.18421
   C        6.86967        -4.63861         1.19775
   C        6.29591        -4.78955         2.46908
   C        5.02641        -4.29541         2.74947
  Cl        7.16798        -5.59587         3.70391
  Cl        8.44147        -5.25093         0.89084
   C        3.95766        -2.83714        -0.43915
   O        4.11432        -2.49779        -1.58528
   C        2.69563        -2.71158         0.36085
   C        1.52181        -2.51374        -0.28565
   C        0.20878        -2.72931         0.22181
   N       -0.01271        -3.41774         1.32825
   C       -1.35523        -3.48340         1.46466
   C       -2.03581        -2.79475         0.36730
   C       -3.49370        -2.87002         0.53937
   O       -4.36316        -2.43640        -0.18844
   C       -3.63418        -3.61431         1.80549
   C       -2.29856        -3.98095         2.33055
   N       -2.41290        -4.66821         3.49225
   C       -3.69959        -4.74047         3.72279
   C       -4.52174        -4.09890         2.70782
   C       -1.04049        -2.29738        -0.44777
   C       -1.12436        -1.53400        -1.63519
   C       -2.32032        -1.21485        -2.20623
   C       -2.47711        -0.47457        -3.38890
   S       -1.15435         0.23175        -4.24627
   C       -2.17412         0.92058        -5.47116
   C       -3.52216         0.53478        -5.26115
   C       -3.69563        -0.21011        -4.05749
   C       -4.97493        -0.61496        -3.64120
   C       -6.04916        -0.30722        -4.43136
   F       -7.28562        -0.66045        -4.05775
   C       -5.87240         0.35686        -5.66065
   F       -6.94399         0.59534        -6.43598
   C       -4.63644         0.76253        -6.08496
   C       -1.57985         1.81653        -6.37374
   C       -2.25074         2.68398        -7.19091
   C       -1.60876         3.64376        -7.99540
   N       -0.29175         3.66528        -8.19860
   C       -0.06629         4.64226        -9.08462
   C       -1.32226         5.29128        -9.50185
   C       -1.06035         6.36215       -10.48625
   O       -1.85848         7.09128       -11.02806
   C        0.40372         6.30187       -10.63163
   C        0.97018         5.24589        -9.76429
   N        2.31429         5.19266        -9.89130
   C        2.61473         6.13110       -10.76104
   C        1.47102         6.86173       -11.26059
   C       -2.31953         4.68760        -8.78813
   C       -3.72430         4.94240        -8.80561
   C       -4.54196         4.73783        -7.74293
   C       -5.95620         4.79530        -7.82994
   C       -6.78734         4.30596        -6.86275
   C       -8.24168         4.25006        -6.89826
   C       -9.06305         4.76192        -7.86476
   C      -10.47289         4.67727        -7.83206
   N      -11.61916         4.64813        -7.86777
   C       -8.64169         5.45056        -9.02351
   N       -8.38415         6.01778        -9.98738
   C       -8.68470         3.54592        -5.69806
   C       -7.56072         3.21464        -4.92197
   C       -6.33407         3.64615        -5.61241
   O       -5.19525         3.43655        -5.23962
   C       -7.67235         2.53949        -3.72288
   C       -8.93833         2.17080        -3.28853
   C      -10.06414         2.48637        -4.06097
   C       -9.94722         3.17607        -5.26265
  Cl      -11.62189         2.01807        -3.51963
  Cl       -9.11831         1.32470        -1.81012
   H        6.59759        -3.88039        -0.79819
   H        4.61079        -4.43302         3.73447
   H        1.60526        -2.24946        -1.33420
   H       -4.06796        -5.24471         4.59909
   H       -5.59249        -4.04841         2.71560
   H       -0.20455        -1.20235        -2.09862
   H       -3.22792        -1.56086        -1.72978
   H       -5.12597        -1.15383        -2.71944
   H       -4.55208         1.22060        -7.05426
   H       -0.49965         1.88804        -6.35670
   H       -3.32495         2.69126        -7.19617
   H        3.63950         6.29983       -11.04296
   H        1.50329         7.66258       -11.97229
   H       -4.13079         5.30998        -9.74069
   H       -4.12268         4.48632        -6.78077
   H       -6.37688         5.18835        -8.74622
   H       -6.79541         2.30479        -3.13948
   H      -10.83765         3.39811        -5.82733
*
