# ORCA input file
# SCF done       -196.293065156399          0.000815910656
! CAM-B3LYP def2-SVP def2/J RIJCOSX Grid4 TightSCF
%maxcore 5000
%tddft
    Mode sTDDFT
    Ethresh 5.0
    maxcore 5000
end

%pal
  nprocs 6
  end
* xyz 0 1
   C       -4.56045        -6.13600         0.07406
   C       -3.81776        -6.57817         1.12997
   C       -4.17702        -7.68872         1.92451
   N       -4.42914        -8.58618         2.59253
   C       -2.70274        -5.88251         1.65698
   N       -1.92515        -5.28947         2.25991
   C       -5.90886        -6.57714        -0.27510
   C       -6.52138        -5.59836        -1.08356
   C       -7.82616        -5.73016        -1.51974
   C       -8.53055        -6.87149        -1.15931
   C       -7.91880        -7.86016        -0.37575
   C       -6.61120        -7.71712         0.07604
  Cl       -8.78956        -9.27770         0.03239
  Cl      -10.14360        -7.07904        -1.69845
   C       -5.55559        -4.52804        -1.37840
   O       -5.72317        -3.51330        -2.01438
   C       -4.27105        -4.99000        -0.76570
   C       -3.10957        -4.42958        -1.18615
   C       -1.78619        -4.90607        -0.99807
   N       -1.50103        -6.04891        -0.39553
   C       -0.16276        -6.19071        -0.46545
   C        0.45314        -5.06528        -1.17938
   C        1.91606        -5.22941        -1.24453
   O        2.72763        -4.50712        -1.78080
   C        2.12950        -6.49092        -0.51186
   C        0.83044        -7.05188        -0.06701
   N        1.01625        -8.21552         0.59899
   C        2.31222        -8.40376         0.60844
   C        3.06852        -7.36256        -0.06786
   C       -0.57518        -4.22574        -1.52344
   C       -0.59272        -3.02190        -2.27701
   C        0.47305        -2.52386        -2.95291
   C        0.37327        -1.43035        -3.87623
   S        1.82633        -0.45866        -3.88878
   C        1.66913         0.52991        -5.33525
   C        2.74331         1.11699        -5.93279
   S        2.28980         2.07119        -7.28429
   C        0.63560         1.66934        -7.05662
   C        0.44981         0.84925        -5.98603
   S       -1.14169         0.28311        -5.50480
   C       -0.77612        -1.21017        -4.61517
   C       -1.78284        -2.20408        -4.67841
   C       -3.08352        -2.05612        -5.06902
   C       -3.96003        -3.15277        -4.93409
   N       -3.56893        -4.26528        -4.29944
   C       -4.63074        -5.07526        -4.28698
   C       -5.78271        -4.47457        -4.97690
   C       -6.95049        -5.37693        -4.90391
   O       -8.08194        -5.17600        -5.28150
   C       -6.40712        -6.54978        -4.19654
   C       -5.01200        -6.30724        -3.79546
   N       -4.52375        -7.35392        -3.09257
   C       -5.50729        -8.23143        -3.05936
   C       -6.70563        -7.79421        -3.72754
   C       -5.36762        -3.23331        -5.39152
   C       -6.04452        -2.21707        -6.11713
   C       -7.23642        -2.38594        -6.74651
   C       -7.82282        -1.31442        -7.46479
   C       -8.92792        -1.40270        -8.25847
   C       -9.58736        -0.31176        -8.95521
   C       -9.12803         0.97006        -9.10358
   C       -9.81652         1.98206        -9.80747
   N      -10.32057         2.84993       -10.36390
   C       -7.89882         1.46177        -8.61434
   N       -6.90968         1.93298        -8.27020
   C      -10.82619        -0.83928        -9.52128
   C      -10.89252        -2.22108        -9.27162
   C       -9.68945        -2.65337        -8.52461
   O       -9.38530        -3.78612        -8.23829
   C      -11.95437        -2.98930        -9.70277
   C      -12.98285        -2.36299       -10.39548
   C      -12.92817        -0.98596       -10.64487
   C      -11.85360        -0.21704       -10.21326
  Cl      -14.20708        -0.22373       -11.49942
  Cl      -14.32362        -3.28114       -10.94637
   H       -8.28366        -4.97103        -2.13517
   H       -6.16917        -8.49670         0.67504
   H       -3.23012        -3.56743        -1.83049
   H        2.73207        -9.27111         1.08745
   H        4.13541        -7.33407        -0.16827
   H       -1.53619        -2.49615        -2.32053
   H        1.45930        -2.93838        -2.78092
   H        3.77060         1.03915        -5.64019
   H       -0.11534         2.06197        -7.71144
   H       -1.50187        -3.20830        -4.38974
   H       -3.46398        -1.10824        -5.41909
   H       -5.37011        -9.17544        -2.56181
   H       -7.61273        -8.35795        -3.81761
   H       -5.54498        -1.25855        -6.19544
   H       -7.74561        -3.33923        -6.72035
   H       -7.34550        -0.34839        -7.35111
   H      -11.98147        -4.04879        -9.50248
   H      -11.84748         0.83986       -10.42348
*
