# ORCA input file
# SCF done       -211.052311456720          0.000756729384
! CAM-B3LYP def2-SVP def2/J RIJCOSX Grid4 TightSCF
%maxcore 5000
%tddft
    Mode sTDDFT
    Ethresh 5.0
    maxcore 5000
end

%pal
  nprocs 6
  end
* xyz 0 1
   C       -2.73535        -3.02158         7.05247
   C       -2.23231        -2.32617         5.98046
   C       -2.74520        -1.09811         5.52144
   N       -3.13771        -0.11506         5.07575
   C       -1.09844        -2.72453         5.24824
   N       -0.16242        -2.98785         4.63656
   C       -3.71086        -2.49968         8.00890
   C       -3.68482        -3.29861         9.16625
   C       -4.47883        -3.01892        10.25850
   C       -5.32881        -1.92086        10.19155
   C       -5.36810        -1.12835         9.04088
   C       -4.55814        -1.40750         7.94465
  Cl       -6.43188         0.21888         8.96791
  Cl       -6.33544        -1.54104        11.53149
   C       -2.72169        -4.40677         8.97222
   O       -2.40155        -5.25801         9.77149
   C       -2.25741        -4.27629         7.56936
   C       -1.54742        -5.30537         7.01141
   C       -1.30084        -5.61591         5.65498
   C       -2.13423        -5.21466         4.59510
   C       -1.88408        -5.60401         3.22133
   N       -2.84019        -5.14582         2.40128
   S       -3.91774        -4.32907         3.24783
   N       -3.26185        -4.50267         4.70303
   C       -0.80244        -6.41487         2.84886
   C        0.06491        -6.80010         3.90128
   C        1.26015        -7.48884         3.77867
   S        2.03513        -7.71137         5.27164
   C        0.80816        -6.88136         6.11440
   C       -0.18886        -6.43066         5.28013
   C       -0.59395        -6.82159         1.47373
   C       -0.18075        -8.10092         1.17122
   C        0.04896        -8.46939        -0.16741
   C        0.51002        -9.66001        -0.71800
   C        0.86719       -10.89808         0.03202
   C        0.05001       -12.11264        -0.45011
   N       -0.05037       -13.07539         0.62820
   C        2.38352       -11.15970        -0.03304
   N        2.75851       -12.24154         0.86411
   C        0.60697        -9.44787        -2.14214
   C        1.04979       -10.23329        -3.14277
   C        1.07834        -9.76694        -4.55573
   C        0.57731        -8.37232        -4.76678
   C        0.13992        -7.59575        -3.75732
   C        0.15406        -8.07545        -2.42799
   C       -0.17414        -7.49084        -1.22106
   C       -0.63881        -6.19954        -0.88174
   C       -0.84224        -5.88137         0.42125
   C        0.23756       -10.68169        -5.40755
   C        0.68387       -11.23214        -6.54549
   C       -0.07300       -12.07076        -7.42941
   C       -1.41183       -12.44088        -7.20073
   C       -2.17164       -13.20689        -8.16680
   N       -3.42523       -13.41804        -7.75719
   S       -3.62448       -12.75792        -6.31326
   N       -2.15683       -12.14516        -6.12600
   C       -1.64648       -13.59588        -9.41608
   C       -0.25470       -13.35144        -9.58840
   C        0.54272       -13.81973       -10.60718
   S        2.16111       -13.33026       -10.44148
   C        1.83831       -12.49897        -8.99773
   C        0.51096       -12.59350        -8.61576
   C       -2.50739       -14.21688       -10.34918
   C       -2.45316       -14.15742       -11.71981
   C       -3.26628       -14.94214       -12.62340
   C       -3.96427       -16.07913       -12.30681
   C       -4.72533       -16.82111       -13.23332
   N       -5.36546       -17.46062       -13.93973
   C       -3.97853       -16.68479       -11.03236
   N       -4.00435       -17.26079       -10.03930
   C       -3.12431       -14.37154       -13.96106
   C       -2.21796       -13.29951       -13.89762
   C       -1.75403       -13.11782       -12.50297
   O       -1.01579       -12.24078       -12.10199
   C       -1.87893       -12.56699       -15.01588
   C       -2.45547       -12.91586       -16.23143
   C       -3.35917       -13.98040       -16.30357
   C       -3.70026       -14.71493       -15.17224
  Cl       -4.06990       -14.39642       -17.81135
  Cl       -2.05393       -12.03202       -17.64851
   H       -4.44007        -3.63671        11.14169
   H       -4.61455        -0.77671         7.07254
   H       -1.17387        -6.02237         7.73612
   H        1.73588        -7.82107         2.87876
   H        0.89822        -6.75135         7.17326
   H       -0.08205        -8.83793         1.95420
   H        0.60123       -10.75530         1.08418
   H        0.50749       -12.52423        -1.36444
   H       -0.96280       -11.78115        -0.70295
   H        0.88523       -13.37972         0.88292
   H       -0.58637       -13.88489         0.33614
   H        2.90587       -10.21239         0.18956
   H        2.66466       -11.45898        -1.04598
   H        2.58284       -11.97193         1.82712
   H        3.74805       -12.44644         0.77580
   H        1.39304       -11.24364        -2.97494
   H        2.11709        -9.82819        -4.91377
   H        0.57234        -8.02500        -5.78830
   H       -0.21079        -6.59190        -3.94754
   H       -0.81540        -5.47412        -1.66161
   H       -1.18040        -4.89662         0.69857
   H       -0.77549       -10.84295        -5.07441
   H        1.70101       -11.03115        -6.85407
   H        0.26388       -14.45371       -11.42316
   H        2.64763       -12.01706        -8.48866
   H       -3.35138       -14.72587        -9.89780
   H       -1.18265       -11.74630       -14.94618
   H       -4.40444       -15.52558       -15.26385
*
