# ORCA input file
# SCF done       -191.194500946677          0.000605264789
! CAM-B3LYP def2-SVP def2/J RIJCOSX Grid4 TightSCF
%maxcore 5000
%tddft
    Mode sTDDFT
    Ethresh 5.0
    maxcore 5000
end

%pal
  nprocs 6
  end
* xyz 0 1
   C       -8.35484        -6.61327         2.96638
   C       -7.40146        -7.54498         2.62105
   C       -7.62781        -8.64188         1.77478
   N       -7.71710        -9.53002         1.04952
   C       -6.09689        -7.55192         3.15053
   N       -5.04877        -7.65624         3.61060
   C       -9.79711        -6.79647         2.79510
   C      -10.46535        -5.91703         3.66511
   C      -11.84028        -5.89734         3.75733
   C      -12.56695        -6.76839         2.95261
   C      -11.90962        -7.63919         2.08094
   C      -10.52058        -7.66592         1.99978
  Cl      -12.82262        -8.70224         1.08458
  Cl      -14.28450        -6.76750         3.03456
   C       -9.46687        -5.07942         4.37632
   O       -9.68152        -4.23864         5.22275
   C       -8.16607        -5.45255         3.78760
   C       -7.08337        -4.61996         3.98181
   C       -5.93963        -4.43755         3.21406
   S       -5.67296        -5.14860         1.62838
   C       -4.14483        -4.35282         1.38469
   C       -3.87782        -3.54875         2.48156
   C       -4.86449        -3.58230         3.50491
   C       -4.40222        -2.75130         4.54992
   C       -3.18832        -2.26296         4.14767
   N       -2.86820        -2.73161         2.90529
   C       -3.36154        -4.63694         0.21938
   C       -3.53339        -5.84158        -0.42787
   C       -2.70568        -6.18004        -1.51043
   C       -2.62456        -7.34405        -2.26279
   C       -3.42848        -8.59722        -2.16040
   C       -3.51531        -9.16917        -0.72408
   N       -4.59143        -8.59171         0.06523
   C       -4.82620        -8.38856        -2.77677
   N       -4.68265        -8.14618        -4.20305
   C       -1.58630        -7.12387        -3.24486
   C       -1.11323        -7.91550        -4.22513
   C       -0.01842        -7.47116        -5.13011
   C        0.48444        -6.08151        -4.86645
   C       -0.00353        -5.30203        -3.88486
   C       -1.03539        -5.77555        -3.03979
   C       -1.71688        -5.21558        -1.98037
   C       -1.60478        -3.96402        -1.32770
   C       -2.38804        -3.69340        -0.25428
   C       -0.46305        -7.53785        -6.56659
   C        0.33124        -7.94147        -7.56639
   C       -0.04772        -7.97336        -8.94045
   S       -1.65320        -7.58835        -9.48268
   C       -1.26091        -7.89160       -11.17343
   C        0.08942        -8.26841       -11.24957
   C        0.77389        -8.32240       -10.01126
   C        2.10866        -8.72148       -10.30210
   C        2.17318        -8.88646       -11.65347
   N        0.95564        -8.61410       -12.22920
   C       -2.09180        -7.80927       -12.28153
   C       -3.42845        -7.48132       -12.38266
   C       -4.19565        -7.45071       -13.60320
   C       -3.75665        -7.72165       -14.87801
   C       -4.57434        -7.67221       -16.02514
   N       -5.17959        -7.64935       -17.00061
   C       -2.44149        -8.08518       -15.22496
   N       -1.38671        -8.38670       -15.57140
   C       -5.56443        -7.07369       -13.24562
   C       -5.63055        -6.87668       -11.85510
   C       -4.29569        -7.11896       -11.26498
   O       -3.99752        -7.02832       -10.08646
   C       -6.80258        -6.51683       -11.22545
   C       -7.94253        -6.34747       -12.00324
   C       -7.88649        -6.53921       -13.38625
   C       -6.70048        -6.90293       -14.01721
  Cl       -9.30180        -6.32579       -14.33672
  Cl       -9.42369        -5.90082       -11.25614
   H      -12.33853        -5.22377         4.43637
   H      -10.04284        -8.34967         1.31681
   H       -7.19885        -3.91982         4.80400
   H       -4.89559        -2.54553         5.47753
   H       -2.52219        -1.60203         4.66845
   H       -2.00080        -2.56344         2.42528
   H       -4.25265        -6.56740        -0.07424
   H       -2.93125        -9.35404        -2.77441
   H       -2.57276        -8.95346        -0.21357
   H       -3.60825       -10.26311        -0.80966
   H       -4.45581        -8.80149         1.04799
   H       -5.48922        -8.97748        -0.20745
   H       -5.33417        -7.57518        -2.23832
   H       -5.40890        -9.30561        -2.65557
   H       -4.22474        -7.25394        -4.36044
   H       -5.59194        -8.11201        -4.65000
   H       -1.52009        -8.89928        -4.41215
   H        0.82417        -8.16926        -5.00726
   H        1.26369        -5.73385        -5.52718
   H        0.38736        -4.30667        -3.72892
   H       -0.89212        -3.23721        -1.68983
   H       -2.32555        -2.73242         0.23494
   H       -1.46373        -7.18608        -6.77273
   H        1.34109        -8.27386        -7.35773
   H        2.90746        -8.86383        -9.60336
   H        3.00631        -9.18107       -12.26130
   H        0.75464        -8.66843       -13.21482
   H       -1.58885        -8.05532       -13.20766
   H       -6.83255        -6.37161       -10.15731
   H       -6.69680        -7.04260       -15.08567
*
