# ORCA input file
# SCF done       -179.565987838222          0.000547899345
! CAM-B3LYP def2-SVP def2/J RIJCOSX Grid4 TightSCF
%maxcore 5000
%tddft
    Mode sTDDFT
    Ethresh 5.0
    maxcore 5000
end

%pal
  nprocs 6
  end
* xyz 0 1
   C       -7.91526         3.82334         3.38041
   C       -7.23609         3.86327         4.56399
   C       -7.67249         4.57367         5.70450
   N       -7.98515         5.12211         6.66253
   C       -6.02649         3.18209         4.82810
   N       -5.05026         2.65739         5.12440
   C       -9.17304         4.49674         3.08938
   C       -9.61095         4.12888         1.79225
   C      -10.77942         4.60013         1.24307
   C      -11.55115         5.48208         2.00493
   C      -11.10343         5.85031         3.29752
   C       -9.92549         5.37202         3.85468
   S      -12.20820         6.94945         4.06636
   C      -13.24176         6.89831         2.66309
   C      -12.78537         6.10144         1.66760
  Br      -14.82649         7.89923         2.64380
   C       -8.64530         3.19066         1.19039
   O       -8.76085         2.59865         0.14445
   C       -7.53189         3.07616         2.18263
   C       -6.40814         2.38407         1.94182
   C       -6.16930         1.74771         0.63515
   N       -6.18007         0.41940         0.60513
   C       -6.03963        -0.14016        -0.58856
   C       -5.88664         0.60240        -1.74172
   C       -5.82035         1.99761        -1.59558
   N       -5.95382         2.55370        -0.38731
   C       -5.63400         2.86031        -2.73321
   C       -5.39494         4.18467        -2.61200
   C       -5.24333         5.10218        -3.69236
   C       -4.79940         6.42327        -3.44058
   C       -4.62122         7.39470        -4.48626
   N       -4.13329         8.60215        -4.20567
   C       -3.84451         8.91022        -2.95524
   C       -4.08340         7.97105        -1.90758
   N       -4.53558         6.76832        -2.16674
   C       -3.83690         8.33694        -0.55954
   N       -3.63435         8.66532         0.51905
   C       -3.30538        10.18573        -2.67122
   N       -2.86962        11.21466        -2.41340
   C       -4.97346         7.11730        -5.85144
   C       -5.43385         5.79489        -6.09001
   C       -5.53627         4.80278        -5.04370
   N       -5.95976         3.63357        -5.52241
   S       -6.20814         3.75560        -7.10808
   N       -5.78637         5.30553        -7.26947
   C       -4.82976         8.13122        -6.79598
   C       -5.22148         8.22018        -8.12412
   C       -5.00530         9.37651        -8.90498
   C       -5.55585         9.33061       -10.15776
   C       -6.24076         8.13326       -10.40742
   S       -6.11858         7.04454        -9.04493
   C       -6.97720         7.76877       -11.53334
   C       -7.17129         8.47568       -12.73230
   C       -7.99658         7.83783       -13.61743
   C       -8.50302         6.60143       -13.15939
   S       -7.85981         6.27051       -11.55951
   C       -9.38995         5.79832       -13.84456
   C       -9.98069         4.59180       -13.44053
   C       -9.78427         3.86110       -12.22295
   C      -10.60130         2.74471       -12.23723
   C      -10.78955         1.72460       -11.28542
   C      -11.70040         0.74092       -11.57937
   C      -12.12878        -0.40270       -10.85111
   C      -13.08898        -1.08010       -11.59640
   C      -13.28159        -0.37361       -12.81403
   C      -12.44459         0.74438       -12.82923
   C      -12.25757         1.74819       -13.77889
   C      -11.34073         2.74820       -13.48901
   C      -10.93477         3.88623       -14.20488
   C      -13.75533        -2.28820       -11.17239
   C      -14.68131        -2.94489       -11.86603
   H      -11.08616         4.29673         0.25435
   H       -9.62737         5.68353         4.84179
   H      -13.29688         5.95444         0.73391
   H       -5.63374         2.25908         2.68518
   H       -6.05966        -1.22276        -0.60007
   H       -5.80409         0.13967        -2.71171
   H       -5.69626         2.40011        -3.70786
   H       -5.28868         4.60348        -1.62090
   H       -4.36465         9.02794        -6.40179
   H       -4.45820        10.21740        -8.51646
   H       -5.49306        10.12887       -10.87555
   H       -6.70597         9.42711       -12.91622
   H       -8.26246         8.22862       -14.58398
   H       -9.68868         6.16508       -14.81989
   H       -9.11441         4.13094       -11.42911
   H      -10.23423         1.73012       -10.35835
   H      -11.76654        -0.69024        -9.88089
   H      -13.96172        -0.65219       -13.59755
   H      -12.81250         1.74710       -14.70636
   H      -11.29553         4.18152       -15.17310
   H      -13.44997        -2.65946       -10.20206
   H      -15.01799        -2.61382       -12.83340
   H      -15.13811        -3.84153       -11.48495
*
