# ORCA input file
# SCF done       -190.897254681531          0.000923954430
! CAM-B3LYP def2-SVP def2/J RIJCOSX Grid4 TightSCF
%maxcore 5000
%tddft
    Mode sTDDFT
    Ethresh 5.0
    maxcore 5000
end

%pal
  nprocs 6
  end
* xyz 0 1
   C       -5.58634        -3.32897        -6.91538
   C       -5.44972        -4.64083        -6.54142
   C       -4.99370        -5.66575        -7.39465
   N       -4.63358        -6.54076        -8.04466
   C       -5.77368        -5.12810        -5.25926
   N       -6.03033        -5.56358        -4.22839
   C       -5.28462        -2.77504        -8.23253
   C       -5.63708        -1.39983        -8.24448
   C       -5.44596        -0.59378        -9.34083
   C       -4.86210        -1.16575       -10.47344
   C       -4.51760        -2.53831       -10.45680
   C       -4.72417        -3.35799        -9.35229
   S       -3.80355        -3.02926       -11.96072
   C       -3.96573        -1.40311       -12.57535
   C       -4.53138        -0.53584       -11.70384
  Br       -3.37324        -1.01407       -14.30925
   C       -6.14695        -1.03251        -6.92524
   O       -6.54875         0.07346        -6.56360
   C       -6.06365        -2.23881        -6.09538
   C       -6.33346        -2.20315        -4.74763
   N       -6.68446        -1.03931        -4.18885
   C       -6.91573        -0.73725        -2.89148
   S       -7.13718        -1.93745        -1.66265
   C       -7.38531        -0.66562        -0.50414
   N       -7.64188        -1.03316         0.82303
   O       -7.82093        -0.14085         1.63131
   O       -7.67067        -2.22629         1.06838
   C       -7.29360         0.59404        -1.03189
   C       -7.01711         0.58330        -2.41320
   C       -6.79579         1.70857        -3.26406
   C       -6.89104         3.01744        -2.92993
   C       -6.62978         4.07963        -3.84275
   C       -6.00405         3.93265        -5.10479
   C       -5.98715         4.99890        -6.07759
   N       -5.63274         4.73217        -7.32981
   C       -5.16519         3.53876        -7.64487
   C       -4.88808         2.59758        -6.60625
   N       -5.34411         2.80194        -5.39514
   C       -4.10116         1.45224        -6.87190
   N       -3.46106         0.53700        -7.13201
   C       -4.93896         3.18248        -8.98934
   N       -4.76774         2.80101       -10.05862
   C       -6.37372         6.34460        -5.74760
   C       -6.86338         6.51077        -4.42266
   C       -7.01575         5.40038        -3.51389
   N       -7.54491         5.77853        -2.35251
   S       -7.81362         7.36589        -2.38021
   N       -7.27885         7.64532        -3.88024
   C       -6.26433         7.32647        -6.72665
   C       -6.50027         8.69550        -6.69964
   C       -6.30872         9.52002        -7.82795
   C       -6.54182        10.85234        -7.60806
   C       -6.92365        11.12560        -6.28870
   S       -7.00236         9.66032        -5.33949
   C       -7.21579        12.35766        -5.70161
   C       -7.20774        13.63726        -6.28005
   C       -7.53211        14.63707        -5.40290
   C       -7.81115        14.19618        -4.09177
   S       -7.64784        12.45016        -4.02054
   C       -8.15422        15.00861        -3.03010
   C       -8.44124        14.65294        -1.70567
   C       -8.45588        13.35513        -1.10612
   C       -8.79833        13.48642         0.23133
   C       -8.95132        12.52516         1.24382
   C       -9.30869        12.96924         2.49613
   C       -9.54327        12.27974         3.71182
   C       -9.88695        13.20449         4.70069
   C       -9.87219        14.49482         4.12011
   C       -9.52080        14.38270         2.76766
   C       -9.36906        15.33951         1.77149
   C       -9.00871        14.89961         0.50099
   C       -8.78363        15.58704        -0.69682
   C      -10.19763        12.86110         6.06791
   C      -10.53563        13.72318         7.02315
   H       -5.71738         0.44941        -9.33074
   H       -4.43763        -4.39611        -9.38485
   H       -4.69772         0.50776       -11.90051
   H       -6.24565        -3.06833        -4.10319
   H       -6.72485        -0.26200        -4.87746
   H       -7.41490         1.47912        -0.43510
   H       -6.49900         1.48962        -4.27792
   H       -7.23247         3.32758        -1.95253
   H       -5.91603         6.95029        -7.68226
   H       -6.00030         9.11019        -8.77365
   H       -6.44105        11.61535        -8.35906
   H       -6.96577        13.79570        -7.31534
   H       -7.57590        15.67948        -5.66570
   H       -8.20669        16.06748        -3.25618
   H       -8.23912        12.42887        -1.60270
   H       -8.79269        11.47665         1.03588
   H       -9.46862        11.21600         3.84704
   H      -10.09373        15.41470         4.62863
   H       -9.52646        16.38911         1.97564
   H       -8.85677        16.64996        -0.83765
   H      -10.14096        11.80417         6.29623
   H      -10.60577        14.78223         6.84326
   H      -10.75528        13.39526         8.02411
*
