# ORCA input file
# SCF done       -186.841300246293          0.000580585528
! CAM-B3LYP def2-SVP def2/J RIJCOSX Grid4 TightSCF
%maxcore 5000
%tddft
    Mode sTDDFT
    Ethresh 5.0
    maxcore 5000
end

%pal
  nprocs 6
  end
* xyz 0 1
   C       -9.42517         0.05648        -5.04056
   C      -10.59658        -0.29399        -4.41183
   C      -11.63912        -1.01564        -5.02940
   N      -12.52411        -1.60388        -5.46465
   C      -10.96084         0.02222        -3.08761
   N      -11.34743         0.25343        -2.02911
   C       -9.12064        -0.21409        -6.44136
   C       -7.87318         0.37740        -6.75246
   C       -7.31343         0.31558        -8.00481
   C       -8.02088        -0.36295        -9.00294
   C       -9.26492        -0.95558        -8.68251
   C       -9.82945        -0.89396        -7.41418
   S       -9.97088        -1.74451       -10.06056
   C       -8.60557        -1.27047       -11.03566
   C       -7.66714        -0.56015       -10.36560
  Br       -8.54723        -1.75741       -12.84619
   C       -7.32492         1.03402        -5.54886
   O       -6.25247         1.60461        -5.48776
   C       -8.31635         0.80580        -4.47992
   C       -8.24602         1.16426        -3.15470
   C       -7.37076         2.00449        -2.45031
   C       -6.26927         2.73235        -2.83515
   C       -5.79213         3.56964        -1.77464
   C       -6.63297         3.35843        -0.69514
   C       -7.59798         2.25626        -0.97971
   C       -8.93472         2.74425        -0.42886
   C       -8.58342         3.32591         0.93709
   S       -6.98608         4.22655         0.72987
   C       -4.75471         4.54342        -1.80479
   C       -3.72046         4.63012        -2.68902
   C       -3.28019         3.73116        -3.70103
   C       -2.15256         4.12546        -4.34533
   C       -1.63413         5.37051        -3.90733
   S       -2.62604         6.01224        -2.61743
   C       -0.52166         6.03068        -4.37819
   C        0.40917         5.59915        -5.35292
   C        1.41971         6.47550        -5.59293
   C        1.34035         7.67299        -4.83419
   S       -0.07235         7.61547        -3.77648
   C        2.18205         8.74296        -4.88454
   N        1.96736         9.87437        -4.15913
   C        2.74033        10.97486        -4.12659
   S        4.25913        11.03042        -4.96296
   C        4.48369        12.66565        -4.40727
   N        5.65784        13.30530        -4.81043
   O        5.83190        14.45843        -4.46414
   O        6.42299        12.64457        -5.49727
   C        3.45682        13.13069        -3.63675
   C        2.42868        12.18087        -3.45941
   C        1.22362        12.38932        -2.72917
   C        0.82523        13.57257        -2.19292
   C       -0.39436        13.69852        -1.49491
   C       -0.88549        14.79524        -0.84755
   C       -0.28845        16.06165        -0.48754
   C        1.03157        16.29953        -0.19964
   C        1.52838        17.55309         0.21326
   N        1.98040        18.55546         0.54274
   C        2.03062        15.30483        -0.16671
   N        2.87151        14.52809        -0.07925
   C       -1.38131        17.00224        -0.25146
   C       -2.60397        16.28438        -0.23547
   C       -2.33580        14.86329        -0.53371
   O       -3.12901        13.94898        -0.56700
   C       -3.81284        16.89134         0.00264
   C       -3.81785        18.27292         0.22270
   C       -2.59400        18.98260         0.18869
   C       -1.36924        18.36779        -0.04292
   S       -2.83148        20.68040         0.47052
   C       -4.54753        20.41705         0.63305
   C       -4.92572        19.12568         0.48235
  Br       -5.67804        21.87223         0.98269
   H       -6.36150         0.77978        -8.20992
   H      -10.77901        -1.36433        -7.22253
   H       -6.76300        -0.18930       -10.81279
   H       -9.03591         0.76765        -2.53051
   H       -5.87463         2.73871        -3.83264
   H       -7.29478         1.35722        -0.42450
   H       -9.67242         1.94829        -0.33288
   H       -9.33972         3.51999        -1.08159
   H       -8.41999         2.54267         1.67780
   H       -9.31872         4.03264         1.31350
   H       -4.80593         5.28808        -1.01981
   H       -3.78563         2.80500        -3.90064
   H       -1.67806         3.56071        -5.12766
   H        0.30835         4.64676        -5.84091
   H        2.21811         6.31268        -6.29404
   H        3.05046         8.73385        -5.52511
   H        1.12332         9.88297        -3.59505
   H        3.46937        14.11307        -3.20254
   H        0.57659        11.53300        -2.58087
   H        1.43283        14.45219        -2.33104
   H       -1.07642        12.85485        -1.53648
   H       -4.72726        16.31931         0.01725
   H       -0.46369        18.95102        -0.06586
   H       -5.94318        18.78639         0.55027
*
