# ORCA input file
# SCF done       -196.226346446508          0.000805047153
! CAM-B3LYP def2-SVP def2/J RIJCOSX Grid4 TightSCF
%maxcore 5000
%tddft
    Mode sTDDFT
    Ethresh 5.0
    maxcore 5000
end

%pal
  nprocs 6
  end
* xyz 0 1
   C       -2.48635       -14.73840        11.90422
   C       -3.22750       -15.84171        11.58628
   F       -4.01544       -16.41073        12.50451
   C       -3.17234       -16.39486        10.28958
   F       -3.90976       -17.47466        10.00722
   C       -2.37442       -15.83784         9.32998
   C       -1.59697       -14.70125         9.62729
   C       -1.65487       -14.13852        10.93641
   C       -0.89123       -12.99390        11.25517
   C       -0.09353       -12.42547        10.29481
   C       -0.03569       -12.99984         8.99285
   C       -0.76119       -14.10817         8.65717
   C        0.88734       -12.22674         8.15282
   O        1.27773       -12.50100         7.03963
   C        1.34177       -11.08223         9.00418
   C        0.76723       -11.24998        10.33608
   C        0.96033       -10.43179        11.41189
   C        1.76737        -9.27173        11.41494
   N        2.39605        -8.31458        11.48110
   C        0.37072       -10.63833        12.67988
   N       -0.06981       -10.75962        13.73170
   C        2.20382       -10.13645         8.58090
   C        2.57723        -9.97951         7.18912
   C        3.87824        -9.89825         6.74479
   C        5.02737       -10.01055         7.52974
   N        5.96474       -10.10587         8.18427
   S        3.97858        -9.73814         5.01349
   C        2.24426        -9.74076         4.88823
   C        1.63525        -9.88129         6.12137
   C        0.25136        -9.99862         6.33108
   N       -0.86902       -10.12899         6.53941
   N        1.66413        -9.64355         3.65750
   C        0.48762        -9.00846         3.35046
   S       -0.15972        -7.74708         4.34404
   C       -1.36043        -7.43706         3.13236
   N       -2.29414        -6.42367         3.40290
   O       -3.14525        -6.20162         2.56637
   O       -2.16603        -5.84048         4.46352
   C       -1.25043        -8.23901         2.03167
   C       -0.19504        -9.16867         2.14197
   C        0.11874       -10.13788         1.12759
   C        0.74154       -11.31907         1.34282
   C        1.10085       -12.24351         0.32976
   S        0.88256       -11.90985        -1.34878
   C        1.52685       -13.45748        -1.83436
   C        1.98045       -14.17257        -0.70697
   C        1.71065       -13.49460         0.51692
   C        2.07918       -14.09771         1.73593
   C        2.71542       -15.30554         1.74899
   C        3.10435       -15.98252         3.02184
   C        3.05220       -15.93948         0.51214
   O        3.71771       -17.10683         0.64283
   C        4.00684       -17.85443        -0.51503
   C        2.71298       -15.36649        -0.69293
   C        1.54952       -13.73968        -3.20416
   C        1.53627       -14.96543        -3.83145
   C        1.75771       -15.16775        -5.24563
   C        2.32676       -14.27008        -6.11496
   C        2.53536       -14.52225        -7.48579
   N        2.72322       -14.66997        -8.60880
   C        2.81824       -13.00007        -5.74918
   N        3.26863       -11.96937        -5.51617
   C        1.36453       -16.53419        -5.56966
   C        0.94999       -17.17676        -4.37780
   C        1.04506       -16.22751        -3.24712
   O        0.70560       -16.44426        -2.09938
   C        0.52018       -18.48056        -4.35292
   C        0.50461       -19.18664        -5.56140
   C        0.92036       -18.53533        -6.74635
   C        1.35120       -17.21417        -6.77213
   S        0.81814       -19.58820        -8.12501
   C        0.22958       -20.87288        -7.10410
   C        0.11296       -20.53260        -5.79839
  Br       -0.17500       -22.54245        -7.85771
   H       -2.54174       -14.32728        12.90011
   H       -2.34370       -16.27246         8.34319
   H       -0.95821       -12.59235        12.25321
   H       -0.70174       -14.51995         7.66133
   H        2.65878        -9.44171         9.27458
   H        2.23164        -9.90992         2.85973
   H       -1.91862        -8.17401         1.19217
   H       -0.20769        -9.89098         0.12621
   H        0.96362       -11.63360         2.35299
   H        1.85354       -13.60706         2.67066
   H        4.18431       -16.11705         3.05898
   H        2.65565       -16.97334         3.06573
   H        2.78451       -15.40460         3.88445
   H        4.44128       -18.78832        -0.16223
   H        4.72967       -17.33898        -1.15529
   H        3.09730       -18.06386        -1.08592
   H        3.01286       -15.80935        -1.62541
   H        1.51205       -12.86465        -3.84392
   H        0.20465       -18.94413        -3.43119
   H        1.65088       -16.75871        -7.70111
   H       -0.23644       -21.20190        -5.03354
*
