# ORCA input file
# SCF done       -205.202488547417          0.000960656198
! CAM-B3LYP def2-SVP def2/J RIJCOSX Grid4 TightSCF
%maxcore 5000
%tddft
    Mode sTDDFT
    Ethresh 5.0
    maxcore 5000
end

%pal
  nprocs 6
  end
* xyz 0 1
   C       -0.93937        -1.40127        -4.84946
   C        0.34317        -0.94521        -4.97050
   F        0.58403         0.24745        -5.52621
   C        1.42781        -1.72219        -4.51274
   F        2.67269        -1.24880        -4.64287
   C        1.21419        -2.94592        -3.94296
   C       -0.09614        -3.44492        -3.80609
   C       -1.19404        -2.65823        -4.26372
   C       -2.51730        -3.13381        -4.12831
   C       -2.73761        -4.35902        -3.55286
   C       -1.63453        -5.14427        -3.11297
   C       -0.34454        -4.70944        -3.23007
   C       -2.11851        -6.42107        -2.56653
   O       -1.44850        -7.35219        -2.18195
   C       -3.60812        -6.37210        -2.70072
   C       -3.97166        -5.07986        -3.26986
   C       -5.24054        -4.59703        -3.41874
   C       -6.41239        -5.28726        -3.03572
   N       -7.39959        -5.78291        -2.72650
   C       -5.54366        -3.32178        -3.94577
   N       -5.84900        -2.30125        -4.37080
   C       -4.41996        -7.42850        -2.48256
   C       -3.99931        -8.63255        -1.80170
   C       -4.26392        -9.90740        -2.26578
   C       -4.92253       -10.22874        -3.45304
   N       -5.47064       -10.47314        -4.43118
   S       -3.58818       -11.13110        -1.24054
   C       -2.98228        -9.93916        -0.12393
   C       -3.29114        -8.65599        -0.56965
   C       -2.98944        -7.46110         0.10314
   N       -2.79381        -6.44724         0.60466
   C       -2.29552       -10.28843         1.06586
   S       -2.07902        -9.10135         2.31038
   C       -1.18438       -10.17585         3.32302
   C       -1.08581       -11.44592         2.73333
   C       -1.71107       -11.50989         1.44601
   C       -1.66729       -12.71501         0.71802
   C       -1.07292       -13.81047         1.27547
   F       -1.02540       -14.95914         0.59024
   C       -0.52350       -13.76521         2.57668
   F        0.00049       -14.88070         3.10034
   C       -0.52440       -12.60750         3.29921
   C       -0.67165        -9.66870         4.54713
   C        0.44040       -10.11937         5.17811
   C        0.95800        -9.62634         6.40675
   S        2.64324        -9.90090         6.73781
   C        2.53260        -9.07863         8.26689
   C        1.23678        -8.63242         8.49101
   C        0.34624        -8.95349         7.45597
   C       -1.11241        -8.63623         7.54927
   C       -1.51942        -8.43500         9.00689
   C       -0.59342        -7.39890         9.64870
   N       -1.13380        -7.09495        10.99904
   O       -1.83465        -6.11758        11.09001
   O       -0.87229        -7.85914        11.89314
   C        0.82171        -7.95329         9.75520
   C        3.66756        -8.83280         9.07886
   C        4.84238        -9.51275         9.12235
   C        6.06962        -8.84220         9.64039
   O        6.11588        -7.81447        10.27492
   C        7.18892        -9.66503         9.14527
   C        8.53061        -9.42228         9.21707
   C        9.42967       -10.34141         8.63169
   C        8.91847       -11.50081         7.97742
   C        9.82110       -12.40519         7.38523
   C       11.16359       -12.15453         7.45230
   C       11.68585       -11.02267         8.09363
   C       10.82390       -10.13406         8.67346
   F       12.02643       -13.01552         6.88565
   C        7.52431       -11.73393         7.92839
   C        6.67395       -10.83156         8.50702
   C        5.22072       -10.82144         8.63180
   C        4.40242       -11.91781         8.56602
   C        3.05120       -11.88584         8.96818
   N        1.96082       -11.88763         9.32738
   C        4.84142       -13.19905         8.17586
   N        5.15085       -14.25431         7.84797
   H       -1.75742        -0.79317        -5.20280
   H        2.05442        -3.52836        -3.59884
   H       -3.32615        -2.51825        -4.48753
   H        0.47310        -5.32332        -2.88426
   H       -5.44101        -7.42271        -2.84303
   H       -2.08648       -12.80225        -0.26975
   H       -0.12395       -12.60682         4.29853
   H       -1.17845        -8.79271         4.92408
   H        1.05076       -10.86948         4.69512
   H       -1.69615        -9.44747         7.11041
   H       -1.32812        -7.72260         6.98586
   H       -1.43182        -9.37684         9.55216
   H       -2.55611        -8.09670         9.05560
   H       -0.62978        -6.46330         9.08218
   H        0.84893        -8.68125        10.57398
   H        1.52737        -7.15575        10.00384
   H        3.63541        -7.93010         9.68225
   H        8.90242        -8.53762         9.71188
   H        9.45487       -13.28899         6.88670
   H       12.75429       -10.87783         8.11505
   H       11.20247        -9.25504         9.17292
   H        7.16081       -12.61440         7.42207
*
