# ORCA input file
# SCF done       -157.494063567388          0.000773847998
! CAM-B3LYP def2-SVP def2/J RIJCOSX Grid4 TightSCF
%maxcore 5000
%tddft
    Mode sTDDFT
    Ethresh 5.0
    maxcore 5000
end

%pal
  nprocs 6
  end
* xyz 0 1
   C        3.39103         8.11324        -0.14000
   C        2.68277         8.55953        -1.28416
   C        2.55947         9.83982        -1.76539
   S        1.60176         9.90441        -3.17844
   C        1.34403         8.21763        -3.15953
   C        1.97487         7.60834        -2.09763
   C        1.98451         6.21904        -1.75583
   N        1.22484         5.36021        -2.49721
   C        2.68730         5.82645        -0.62367
   C        3.37929         6.79356         0.16529
   C        2.75299         4.44606        -0.18520
   C        2.66226         3.99305         1.11557
   C        2.31694         4.84363         2.17987
   N        2.00199         5.54529         3.03030
   C        2.84484         2.58206         1.23344
   C        3.06600         1.99747        -0.00335
   S        3.08252         3.12584        -1.30336
   S        3.26159         0.27024         0.00045
   C        3.05004         0.32394         1.71497
   C        2.84423         1.59179         2.26114
   C        2.71113         1.52056         3.66893
   C        2.53972         2.59724         4.54770
   N        2.41518         3.43588         5.32197
   C        2.80435         0.20568         4.15043
   S        3.06743        -0.94991         2.85761
   C        2.75965        -0.17572         5.50489
   C        2.86988        -1.46071         5.97297
   C        2.98358        -1.89299         7.32234
   C        3.19483        -3.23167         7.47114
   C        3.24153        -3.93540         6.24708
   S        2.96190        -2.84525         4.90869
   C        3.54439        -5.24395         5.92442
   C        4.00339        -6.34113         6.68467
   C        4.40097        -7.40489         5.92876
   C        4.27857        -7.20719         4.52671
   S        3.53817        -5.65073         4.22375
   C        4.61849        -8.06389         3.51025
   C        4.55901        -7.72369         2.13863
   C        4.68483        -6.47520         1.53026
   C        5.31844        -5.36086         2.09946
   N        5.94614        -4.47670         2.47765
   C        4.41099        -6.51697         0.13616
   C        4.18898        -7.81112        -0.31217
   S        4.23334        -8.98631         0.94983
   S        3.93246        -7.95095        -2.02419
   C        4.08903        -6.22218        -2.13477
   C        4.31476        -5.57823        -0.92875
   C        4.31276        -4.16175        -1.08545
   C        4.27208        -3.24337        -0.02781
   N        4.14898        -2.47607         0.81736
   C        4.13489        -3.76590        -2.40207
   S        3.93401        -5.14041        -3.46941
   C        4.16210        -2.40720        -2.88055
   C        3.33500        -1.94430        -3.95386
   C        2.40649        -2.63981        -4.69022
   S        1.62703        -1.65908        -5.85001
   C        2.51404        -0.28392        -5.37562
   C        3.39183        -0.56050        -4.35242
   C        4.28170         0.34404        -3.69496
   N        4.29487         1.66811        -4.03395
   C        5.07121        -0.15320        -2.68182
   C        5.00779        -1.49212        -2.28718
   H        3.92601         8.82600         0.46601
   H        2.97754        10.73975        -1.36231
   H        0.73758         7.78389        -3.92982
   H        0.90846         5.65811        -3.40076
   H        1.30960         4.37109        -2.34420
   H        3.92482         6.43838         1.02577
   H        2.66434         0.62484         6.22758
   H        2.93911        -1.19056         8.13618
   H        3.32948        -3.72519         8.41744
   H        4.05421        -6.30690         7.75876
   H        4.81196        -8.31484         6.32955
   H        4.88503        -9.08146         3.76038
   H        2.12262        -3.66911        -4.61555
   H        2.33086         0.64891        -5.87034
   H        3.93545         1.93831        -4.93210
   H        5.04528         2.22929        -3.66837
   H        5.76178         0.50629        -2.17809
   H        5.66932        -1.81867        -1.49950
*
