# ORCA input file
# SCF done       -200.756174065435          0.000441657043
! CAM-B3LYP def2-SVP def2/J RIJCOSX Grid4 TightSCF
%maxcore 5000
%tddft
    Mode sTDDFT
    Ethresh 5.0
    maxcore 5000
end

%pal
  nprocs 6
  end
* xyz 0 1
   C      -10.68236         1.28012        -0.32623
   C      -11.02079         1.52499         0.98135
   C      -12.34871         1.59349         1.45182
   N      -13.39740         1.62030         1.91916
   C      -10.13453         1.68622         2.06517
   N       -9.50832         1.83470         3.01812
   C      -11.62391         1.14092        -1.42838
   C      -10.91551         0.74427        -2.59194
   C      -11.53567         0.53305        -3.79968
   C      -12.91827         0.73016        -3.86752
   C      -13.61640         1.13586        -2.70354
   C      -12.99030         1.34438        -1.48059
   S      -15.31084         1.32778        -3.02238
   C      -15.07687         0.87108        -4.67347
   C      -13.79203         0.58724        -4.98119
   C       -9.48373         0.61177        -2.27348
   O       -8.60320         0.22285        -3.00889
   C       -9.35381         1.02578        -0.85130
   C       -8.20093         1.01954        -0.12615
   C       -6.88170         0.69570        -0.53128
   C       -6.19425         1.04251        -1.77739
   C       -4.90436         0.68036        -1.71034
   C       -4.63339         0.07104        -0.38661
   O       -3.59016        -0.33462         0.05501
   C       -5.96798         0.07639         0.31551
   C       -6.21244        -0.46021         1.58411
   C       -7.47968        -0.78304         2.00251
   C       -7.95174        -1.00682         3.31428
   C       -7.17271        -1.03124         4.50025
   C       -7.78280        -1.20706         5.79148
   N       -7.01717        -1.13615         6.89294
   C       -5.71807        -1.03204         6.78419
   C       -5.10333        -0.98681         5.48971
   N       -5.83795        -0.94145         4.40830
   C       -3.69069        -0.93708         5.37859
   N       -2.54816        -0.88685         5.32639
   C       -4.95001        -0.95596         7.97280
   N       -4.33794        -0.91011         8.93957
   C       -9.17381        -1.40527         5.96103
   C       -9.94988        -1.38167         4.78829
   C       -9.34555        -1.18842         3.49382
   N      -10.25421        -1.21609         2.51526
   S      -11.70345        -1.47441         3.16100
   N      -11.26782        -1.57267         4.69050
   C       -9.74104        -1.63639         7.26249
   C       -9.05653        -2.40068         8.23380
   C       -9.61250        -2.65704         9.53489
   N       -8.84843        -3.24506        10.47065
   C       -7.65907        -3.68788        10.16156
   C       -7.19142        -3.61764         8.80621
   N       -7.88201        -2.96325         7.90901
   C       -5.97364        -4.22514         8.41422
   N       -4.98085        -4.70022         8.09778
   C       -6.88490        -4.29362        11.18250
   N       -6.28685        -4.82181        12.00374
   C      -10.92479        -2.26182         9.87684
   C      -11.58629        -1.46177         8.92891
   C      -11.00284        -1.14510         7.64311
   N      -11.79686        -0.33966         6.93395
   S      -13.12987        -0.05364         7.76267
   N      -12.78983        -0.90280         9.07668
   C      -11.52207        -2.56903        11.13946
   C      -11.25890        -3.63752        11.92763
   C      -10.51414        -4.86000        11.67923
   C      -10.45808        -5.55191        10.49780
   C       -9.80118        -6.78973        10.34338
   N       -9.26649        -7.78695        10.15258
   C      -11.04481        -5.10047         9.30011
   N      -11.48947        -4.76482         8.29553
   C      -10.04786        -5.34050        12.96887
   C      -10.70811        -4.61064        13.99453
   C      -11.58876        -3.59805        13.38764
   O      -12.36358        -2.84930        13.93150
   C      -10.48025        -4.85488        15.32808
   C       -9.55423        -5.84797        15.66194
   C       -8.88886        -6.55595        14.62884
   C       -9.12589        -6.32031        13.28051
   S       -7.77747        -7.71632        15.27474
   C       -8.20516        -7.26400        16.88751
   C       -9.13581        -6.28556        16.94922
   H      -10.96986         0.22746        -4.66607
   H      -13.56461         1.65770        -0.62467
   H      -15.93007         0.84333        -5.32302
   H      -13.45938         0.28615        -5.95793
   H       -8.28324         1.24019         0.93415
   H       -6.68286         1.53311        -2.59773
   H       -4.14580         0.81126        -2.45838
   H       -5.36599        -0.61116         2.24088
   H       -8.25598        -0.87094         1.25222
   H      -12.22442        -1.83771        11.52400
   H      -10.99724        -4.29326        16.09065
   H       -8.58677        -6.87037        12.52684
   H       -7.72451        -7.76432        17.70574
   H       -9.52065        -5.87666        17.86579
*
