# ORCA input file
# SCF done       -191.246876834153          0.000586660383
! CAM-B3LYP def2-SVP def2/J RIJCOSX Grid4 TightSCF
%maxcore 5000
%tddft
    Mode sTDDFT
    Ethresh 5.0
    maxcore 5000
end

%pal
  nprocs 6
  end
* xyz 0 1
   C      -12.48144         1.95380        -8.05320
   C      -12.01534         0.77033        -8.57529
   C      -12.63751         0.07402        -9.63006
   N      -13.09788        -0.54319       -10.48278
   C      -10.87135         0.07232        -8.13987
   N       -9.95909        -0.56388        -7.85123
   C      -13.67642         2.65760        -8.52039
   C      -13.85313         3.81655        -7.72918
   C      -14.87988         4.70556        -7.92837
   C      -15.78560         4.43504        -8.95893
   C      -15.61108         3.26901        -9.73791
   C      -14.56591         2.37317        -9.53950
   S      -16.85395         3.11682       -10.94375
   C      -17.58321         4.59505       -10.38125
   C      -16.92785         5.18362        -9.35502
  Br      -19.17142         5.20419       -11.16257
   C      -12.77935         3.88585        -6.71447
   O      -12.67625         4.74570        -5.86121
   C      -11.91330         2.71566        -6.96589
   C      -10.75217         2.43714        -6.27519
   C      -10.25834         3.23029        -5.23381
   C       -9.09934         2.96895        -4.54775
   C       -8.67228         3.81648        -3.51326
   O       -9.41993         4.90091        -3.19319
   C       -8.83141         5.56795        -2.16960
   C       -7.65578         4.89436        -1.81605
   C       -7.55218         3.78191        -2.66742
   O       -6.57885         2.85619        -2.68258
   O       -6.73724         5.18466        -0.86027
   C       -9.52423         6.71653        -1.74419
   C       -9.26286         7.59186        -0.73182
   C      -10.10618         8.69328        -0.44259
   C       -9.82311         9.54869         0.65634
   C      -10.67501        10.64654         1.02979
   N      -10.35981        11.41615         2.06826
   C       -9.25953        11.16195         2.75519
   C       -8.42005        10.07050         2.39431
   N       -8.71197         9.29950         1.37014
   C       -7.24573         9.79605         3.13966
   N       -6.30218         9.59337         3.75706
   C       -8.93137        11.98903         3.85400
   N       -8.64301        12.64287         4.75068
   C      -11.89510        10.94238         0.32383
   C      -12.13863        10.11056        -0.80422
   C      -11.27235         9.02312        -1.18357
   N      -11.71442         8.41451        -2.28104
   S      -13.06673         9.11549        -2.79701
   N      -13.15786        10.23751        -1.63882
   C      -12.71016        11.97300         0.77749
   C      -13.97486        12.39203         0.36954
   C      -14.67281        13.45472         0.97760
   C      -15.93819        13.66959         0.48655
   C      -16.28427        12.76531        -0.52142
   S      -14.96507        11.67787        -0.86967
   C      -17.46789        12.61256        -1.25141
   C      -18.63312        13.39070        -1.28207
   C      -19.58365        12.91883        -2.15202
   C      -19.21980        11.73776        -2.83050
   S      -17.60931        11.25883        -2.33228
   C      -19.99237        11.05003        -3.74831
   C      -19.71030         9.83603        -4.38686
   C      -20.57572         9.22742        -5.34372
   C      -20.02636         8.01311        -5.74397
   C      -20.47644         7.03192        -6.63576
   C      -19.70797         5.89203        -6.77819
   C      -19.89208         4.72986        -7.55674
   C      -18.82756         3.84605        -7.31148
   C      -17.96289         4.44686        -6.37879
   C      -18.47097         5.71346        -6.03188
   C      -18.00451         6.68852        -5.16907
   C      -18.77770         7.84311        -5.01737
   C      -18.59966         8.96440        -4.21021
   C      -18.60751         2.54497        -7.89712
   C      -19.36497         1.98703        -8.83800
   H      -14.98260         5.58387        -7.31035
   H      -14.47494         1.50275       -10.16706
   H      -17.23819         6.10112        -8.88900
   H      -10.17682         1.56294        -6.55094
   H      -10.82413         4.10576        -4.95142
   H       -8.48150         2.11211        -4.77317
   H       -5.93420         3.07655        -1.99623
   H       -6.98195         5.99523        -0.40103
   H      -10.41110         6.89543        -2.33628
   H       -8.41096         7.48782        -0.07380
   H      -12.30007        12.52112         1.61823
   H      -14.22987        14.03446         1.76849
   H      -16.60311        14.43576         0.84422
   H      -18.74655        14.27614        -0.68283
   H      -20.53786        13.38916        -2.31349
   H      -20.94519        11.50613        -3.99090
   H      -21.50233         9.64850        -5.68915
   H      -21.39854         7.15998        -7.18423
   H      -20.71760         4.55912        -8.22179
   H      -17.05987         4.00757        -5.99473
   H      -17.08210         6.56148        -4.62067
   H      -17.76733         9.12079        -3.55200
   H      -17.73721         2.01777        -7.52463
   H      -20.23285         2.47953        -9.24251
   H      -19.13736         1.01537        -9.24034
*
