# ORCA input file
# SCF done       -212.184779688441          0.000761030370
! CAM-B3LYP def2-SVP def2/J RIJCOSX Grid4 TightSCF
%maxcore 5000
%tddft
    Mode sTDDFT
    Ethresh 5.0
    maxcore 5000
end

%pal
  nprocs 6
  end
* xyz 0 1
   C        5.55405         1.90277        -4.91085
   C        6.24352         1.12234        -4.06896
   C        7.36757         1.48770        -3.25300
   C        7.85858         0.48437        -2.49530
   C        7.17104        -0.75508        -2.64392
   S        5.86356        -0.58662        -3.80123
   C        7.43223        -1.93617        -1.99907
   C        8.45084        -2.21201        -1.04879
   C        8.43296        -3.47957        -0.57266
   C        7.40600        -4.30951        -1.11632
   S        6.45941        -3.37325        -2.26738
   C        7.15246        -5.58523        -0.71143
   C        6.17957        -6.51324        -1.17772
   S        5.46641        -7.56838         0.01592
   C        4.47202        -8.35711        -1.17276
   C        4.72716        -7.84455        -2.42758
   C        5.68032        -6.80195        -2.43358
   C        6.13709        -6.15041        -3.69703
   C        5.79286        -6.97694        -4.93404
   N        6.00541        -6.16006        -6.11405
   C        4.30126        -7.34689        -4.84524
   N        3.89772        -8.02294        -6.09306
   O        3.00069        -7.53640        -6.73426
   O        4.49721        -9.03303        -6.38769
   C        4.07233        -8.31803        -3.68916
   C        3.50650        -9.34162        -0.72626
   C        2.98790        -9.22775         0.57271
   C        2.03646       -10.11359         1.01021
   C        1.56785       -11.13319         0.16647
   C        2.10014       -11.28054        -1.10439
   C        3.06546       -10.39140        -1.53929
   C        0.56549       -11.89455         0.88274
   C        0.42203       -11.34961         2.17018
   C        1.31778       -10.14402         2.34176
   C        0.52055        -8.82503         2.46295
   C       -0.44975        -8.73543         3.63333
   C        2.29878       -10.32676         3.51032
   C        3.12231       -11.60347         3.37829
   C       -0.41381       -11.94668         3.08447
   C       -1.12866       -13.09234         2.72121
   C       -1.02893       -13.58183         1.41622
   C       -0.18035       -12.99853         0.49695
   C       -1.97800       -13.74310         3.70657
   C       -2.12998       -15.06591         3.87070
   C       -1.37252       -16.10722         3.21692
   C       -1.98100       -17.33985         2.91761
   C       -1.27412       -18.40638         2.24452
   N       -1.95386       -19.50106         1.85767
   C       -3.21750       -19.62344         2.16473
   C       -3.88919       -18.60972         2.93387
   N       -3.27354       -17.50523         3.26032
   C       -5.23543       -18.80323         3.33024
   N       -6.32061       -19.00427         3.63842
   C       -3.91238       -20.78047         1.73462
   N       -4.48534       -21.71976         1.41436
   C        0.09340       -18.30936         1.91757
   C        0.71207       -17.09241         2.25626
   C       -0.00367       -16.01466         2.90590
   N        0.80422       -14.98629         3.18443
   S        2.28014       -15.32226         2.66881
   N        2.00267       -16.78366         2.07856
   C        0.79265       -19.39345         1.24938
   C        0.46352       -20.72764         1.53029
   C        1.05726       -21.73378         0.81229
   C        2.00748       -21.44393        -0.18198
   C        2.37709       -20.12903        -0.43035
   C        1.77002       -19.11679         0.28485
   C        2.42501       -22.68850        -0.79171
   C        1.72672       -23.74273        -0.17868
   C        0.81459       -23.22068         0.90625
   C       -0.66176       -23.56042         0.62681
   C       -1.15599       -23.01572        -0.70727
   C        1.21633       -23.77166         2.28732
   C        2.66593       -23.46943         2.64752
   C        1.92429       -25.03937        -0.58809
   C        2.82981       -25.31611        -1.62102
   C        3.52007       -24.25550        -2.21736
   C        3.32620       -22.94933        -1.81384
   C        3.01000       -26.70215        -2.02909
   C        3.83724       -27.16094        -2.96200
   H        5.81816         2.93737        -5.04144
   H        4.72233         1.52693        -5.47795
   H        7.75502         2.49094        -3.27348
   H        8.69474         0.58238        -1.82568
   H        9.16034        -1.46204        -0.74838
   H        9.12386        -3.86637         0.15586
   H        7.71987        -5.92129         0.14923
   H        7.21460        -5.97498        -3.65175
   H        5.65400        -5.17631        -3.81672
   H        6.37494        -7.91618        -4.93794
   H        5.95625        -6.70984        -6.96448
   H        6.91160        -5.70971        -6.08411
   H        3.69780        -6.44013        -4.76152
   H        4.50637        -9.28009        -3.98547
   H        3.00159        -8.46316        -3.52121
   H        3.33855        -8.43040         1.21167
   H        1.77177       -12.07969        -1.75195
   H        3.50357       -10.53847        -2.51169
   H       -0.04027        -8.68723         1.53460
   H        1.24262        -8.00855         2.53508
   H       -1.24827        -9.46481         3.53106
   H       -0.89866        -7.74445         3.65193
   H        0.05551        -8.89255         4.58267
   H        1.74049       -10.36145         4.44640
   H        2.96648        -9.46334         3.54597
   H        2.47352       -12.47728         3.38161
   H        3.81900       -11.68750         4.20927
   H        3.69109       -11.59888         2.45076
   H       -0.49280       -11.58016         4.09652
   H       -1.62784       -14.43477         1.12977
   H       -0.09569       -13.39949        -0.50257
   H       -2.54601       -13.07938         4.34679
   H       -2.89821       -15.43021         4.53994
   H       -0.24524       -20.95556         2.30987
   H        3.11431       -19.89626        -1.18414
   H        2.02541       -18.08868         0.08255
   H       -1.27581       -23.14645         1.42904
   H       -0.77983       -24.64586         0.64229
   H       -1.07227       -21.93164        -0.73184
   H       -2.20089       -23.28005        -0.84995
   H       -0.57645       -23.42654        -1.53164
   H        1.05944       -24.85231         2.29075
   H        0.55644       -23.33682         3.04099
   H        3.34298       -23.91189         1.92011
   H        2.90065       -23.87687         3.62834
   H        2.84080       -22.39596         2.66935
   H        1.38649       -25.85265        -0.12104
   H        4.21836       -24.45897        -3.01409
   H        3.86690       -22.14451        -2.28962
   H        2.38812       -27.40984        -1.49353
   H        4.48749       -26.52188        -3.53413
   H        3.89403       -28.21164        -3.18922
*
