# ORCA input file
# SCF done       -179.693972457120          0.000878495490
! CAM-B3LYP def2-SVP def2/J RIJCOSX Grid4 TightSCF
%maxcore 5000
%tddft
    Mode sTDDFT
    Ethresh 5.0
    maxcore 5000
end

%pal
  nprocs 6
  end
* xyz 0 1
   C       -3.83307         5.46575        -4.16945
   C       -2.72090         4.83048        -4.56809
   C       -2.06631         4.91818        -5.83964
   C       -0.95297         4.15552        -5.94827
   C       -0.63729         3.40933        -4.78311
   S       -1.82245         3.71229        -3.52951
   C        0.43425         2.55916        -4.59975
   C        1.45303         2.23868        -5.52196
   C        2.38823         1.37254        -5.03227
   C        2.16086         0.96113        -3.70460
   S        0.70060         1.71168        -3.08925
   C        2.95473         0.11079        -2.95469
   C        2.70092        -0.26323        -1.64745
   C        3.52809        -1.07334        -0.88783
   C        3.33394        -1.46779         0.44922
   C        4.34221        -2.23485         0.96291
   C        5.38805        -2.48338         0.05224
   S        5.03810        -1.73115        -1.48996
   C        6.56918        -3.16707         0.27244
   C        7.01426        -3.76839         1.47336
   C        8.26311        -4.29831         1.40597
   C        8.88525        -4.16240         0.13159
   S        7.78148        -3.34605        -0.97828
   C       10.09307        -4.62207        -0.27914
   C       11.09074        -5.20082         0.60243
   C       11.78478        -6.38372         0.27118
   C       11.40869        -7.26331        -0.84329
   O       12.15934        -8.10589        -1.29727
   C       10.04554        -7.08899        -1.43305
   C        9.88823        -6.84482        -2.76189
   S        8.23857        -6.67361        -3.21742
   C        7.73720        -7.01026        -1.62090
   C        8.78432        -7.22411        -0.76244
   C        8.60569        -7.55141         0.66245
   O        9.48207        -7.41930         1.49315
   C        7.25497        -8.05319         1.04012
   C        6.65612        -7.56207         2.19640
   C        5.40901        -8.01600         2.58255
   C        4.76256        -8.98698         1.83498
   C        5.36825        -9.50481         0.70166
   C        6.60675        -9.03813         0.29954
   C       12.84259        -6.79815         1.08466
   C       13.20476        -6.09920         2.20992
   C       12.49123        -4.95077         2.58880
   C       11.43271        -4.53552         1.76948
   C       12.78138        -4.17979         3.75939
   C       13.93378        -4.11344         4.48845
   C       14.11651        -3.29594         5.63899
   C       15.38042        -3.29802         6.14130
   C       16.28190        -4.10888         5.41905
   S       15.45324        -4.91214         4.10343
   C       17.64190        -4.25981         5.63088
   C       18.42995        -3.67470         6.64004
   C       19.76167        -3.96974         6.54004
   C       20.09063        -4.79770         5.45150
   S       18.64138        -5.21850         4.56119
   C       21.35982        -5.21050         5.07857
   C       21.64437        -6.00253         3.98239
   C       22.92196        -6.35704         3.58052
   C       23.27044        -7.14972         2.47051
   C       24.61551        -7.31264         2.29482
   C       25.40053        -6.65113         3.26220
   S       24.36990        -5.82365         4.41170
   C       26.77743        -6.60193         3.35165
   C       27.71975        -7.21567         2.48643
   C       29.01306        -6.98208         2.81257
   C       29.19063        -6.15949         3.97215
   S       27.60213        -5.71088         4.61337
   C       30.34306        -5.75733         4.52877
   H       -4.34780         6.13754        -4.83341
   H       -4.24194         5.32806        -3.18549
   H       -2.45822         5.54970        -6.61695
   H       -0.34020         4.10182        -6.83073
   H        1.47431         2.65198        -6.51420
   H        3.23791         1.01865        -5.58961
   H        3.84563        -0.27596        -3.43410
   H        1.80359         0.10988        -1.16979
   H        2.45908        -1.16876         0.99966
   H        4.35926        -2.61639         1.96803
   H        6.39754        -3.78335         2.35461
   H        8.76385        -4.80758         2.20942
   H       10.35928        -4.51614        -1.32139
   H       10.66154        -6.71958        -3.49378
   H        6.69075        -7.00797        -1.38684
   H        7.17649        -6.81562         2.77710
   H        4.94286        -7.61921         3.47237
   H        3.79164        -9.34779         2.14077
   H        4.87423       -10.27616         0.12944
   H        7.08527        -9.45665        -0.57382
   H       13.35820        -7.70723         0.81258
   H       14.01192        -6.46185         2.82583
   H       10.90727        -3.62417         2.01954
   H       11.98808        -3.51902         4.08920
   H       13.30082        -2.72652         6.04868
   H       15.69122        -2.72701         6.99784
   H       18.00518        -3.05225         7.40687
   H       20.51584        -3.60671         7.21606
   H       22.18449        -4.86499         5.68975
   H       20.82102        -6.36585         3.38014
   H       22.51915        -7.57612         1.82907
   H       25.05515        -7.88430         1.49749
   H       27.40525        -7.81102         1.64760
   H       29.86230        -7.36241         2.27334
   H       31.28763        -6.05069         4.10616
   H       30.36131        -5.13364         5.40345
*
