# ORCA input file
# SCF done       -209.375366548828          0.000801130097
! CAM-B3LYP def2-SVP def2/J RIJCOSX Grid4 TightSCF
%maxcore 5000
%tddft
    Mode sTDDFT
    Ethresh 5.0
    maxcore 5000
end

%pal
  nprocs 6
  end
* xyz 0 1
   C       -2.85105        -0.37657        -8.80793
   C       -1.71160        -0.65253        -8.15947
   C       -0.49480         0.10967        -8.15750
   C        0.49465        -0.41882        -7.40558
   C        0.14945        -1.63542        -6.75049
   S       -1.50208        -2.08247        -7.13629
   C        0.94500        -2.39114        -5.92647
   C        2.28756        -2.14052        -5.53790
   C        2.80418        -3.07540        -4.70491
   C        1.91102        -4.13696        -4.36913
   S        0.37401        -3.87372        -5.18532
   C        2.24359        -5.15948        -3.52919
   C        1.49151        -6.28468        -3.07309
   C        2.10135        -7.13409        -2.12578
   C        1.42045        -8.21576        -1.63620
   C        0.11813        -8.50584        -2.08707
   C       -0.49172        -7.68750        -3.03323
   C        0.18978        -6.59150        -3.51121
   C       -0.35602        -9.67252        -1.39345
   C        0.64405       -10.10753        -0.49589
   C        1.88451        -9.25480        -0.63836
   C        2.32658        -8.62364         0.68988
   C        1.24563        -7.74062         1.30240
   C        3.04874       -10.02845        -1.30235
   C        3.53303       -11.26546        -0.55745
   C        0.40093       -11.15015         0.35952
   C       -0.83198       -11.83249         0.30144
   C       -1.79422       -11.41354        -0.63860
   C       -1.57569       -10.33857        -1.46719
   C       -1.14945       -12.93484         1.15075
   C       -0.41025       -13.42168         2.19008
   C       -0.81850       -14.52244         2.95420
   C       -0.13651       -15.03243         4.03453
   C       -0.50491       -16.14783         4.81864
   C        0.35669       -16.42532         5.83957
   C        1.44962       -15.53772         5.91956
   S        1.36052       -14.34465         4.65020
   C        2.47424       -15.54238         6.85441
   C        2.67046       -16.44287         7.91824
   C        3.76869       -16.16464         8.67975
   C        4.49396       -15.02690         8.25821
   S        3.73817       -14.32856         6.84378
   C        5.61947       -14.51746         8.86908
   C        6.34669       -13.38573         8.49402
   C        7.45628       -12.86794         9.15371
   C        7.98933       -11.71540         8.58119
   C        7.29222       -11.31285         7.43343
   S        5.96597       -12.40053         7.10369
   C        7.51988       -10.23024         6.58188
   C        8.48323        -9.21235         6.66645
   C        9.52277        -9.01886         7.67697
   O       10.27224        -8.06440         7.63650
   N        9.70135        -9.92225         8.71277
   C        9.15505       -11.08953         9.21157
   O        9.67061       -11.57348        10.19899
   C        8.38565        -8.29105         5.61944
   C        7.37910        -8.56072         4.71003
   S        6.51532       -10.01090         5.18068
   C        7.00399        -7.87182         3.54352
   C        7.57557        -6.71360         3.09015
   C        7.13747        -6.11077         1.90388
   C        7.61841        -4.93084         1.38357
   C        7.18992        -4.29639         0.16490
   C        6.29969        -4.79244        -0.76245
   C        5.89787        -4.11464        -1.92574
   N        5.50145        -3.63282        -2.89203
   C        5.66570        -6.04508        -0.70414
   N        5.10369        -7.04770        -0.76088
   C        7.88913        -3.02083         0.05154
   C        8.76216        -2.88295         1.15735
   C        8.63770        -4.07470         2.02707
   O        9.25242        -4.27867         3.05311
   C        9.56607        -1.78500         1.33319
   C        9.50486        -0.77019         0.37050
   C        8.62963        -0.91655        -0.73018
   C        7.81692        -2.02965        -0.90854
   S        8.71121         0.45285        -1.79815
   C        9.90433         1.19253        -0.76415
   C       10.22609         0.45442         0.32425
  Br       10.61132         2.86943        -1.22104
   H       -2.93547         0.50538        -9.41799
   H       -3.71043        -1.01782        -8.73942
   H       -0.41926         1.02155        -8.72305
   H        1.47053         0.01924        -7.29159
   H        2.82480        -1.27696        -5.88684
   H        3.80131        -3.05530        -4.30238
   H        3.25165        -5.09653        -3.13435
   H        3.10330        -6.91726        -1.78681
   H       -1.48834        -7.90534        -3.38745
   H       -0.28650        -5.96027        -4.24371
   H        3.22330        -8.03023         0.50521
   H        2.58139        -9.41515         1.39611
   H        0.99675        -6.91852         0.63485
   H        1.59045        -7.32436         2.24655
   H        0.33997        -8.31442         1.49040
   H        3.87863        -9.32912        -1.41272
   H        2.72763       -10.32682        -2.30414
   H        3.85065       -11.02216         0.45295
   H        4.38629       -11.68841        -1.08358
   H        2.75615       -12.02479        -0.51202
   H        1.14303       -11.45360         1.08032
   H       -2.73465       -11.94431        -0.68734
   H       -2.33651       -10.01384        -2.16119
   H       -2.09368       -13.42572         0.94345
   H        0.52651       -12.95719         2.46580
   H       -1.74176       -15.01876         2.68207
   H       -1.39540       -16.71270         4.60552
   H        0.23005       -17.23626         6.53369
   H        2.00562       -17.26812         8.09933
   H        4.07771       -16.73963         9.53449
   H        5.97827       -15.04096         9.74537
   H        7.87414       -13.31151        10.03931
   H       10.48612        -9.62841         9.29454
   H        9.05298        -7.45162         5.54357
   H        6.19416        -8.30786         2.97020
   H        8.37319        -6.24302         3.64278
   H        6.34822        -6.62197         1.36708
   H       10.22183        -1.70866         2.18624
   H        7.16612        -2.09323        -1.76456
   H       10.94212         0.75898         1.06554
*
