# ORCA input file
# SCF done       -154.795756887814          0.000431930347
! CAM-B3LYP def2-SVP def2/J RIJCOSX Grid4 TightSCF
%maxcore 5000
%tddft
    Mode sTDDFT
    Ethresh 5.0
    maxcore 5000
end

%pal
  nprocs 6
  end
* xyz 0 1
   C        1.36505        -0.05902        -0.14281
   O        0.44832        -0.30484        -0.88466
   C        2.18594         1.17613        -0.14577
   C        3.11056         1.14435         0.91182
   C        3.97105         2.21411         1.10307
   C        3.89442         3.29381         0.23153
   C        2.97308         3.31493        -0.81824
   C        2.10519         2.24796        -1.01013
  Br        2.89359         4.79687        -1.98687
  Br        5.06446         4.75528         0.49253
   C        2.95448        -0.11150         1.63998
   C        3.75490        -0.54142         2.66436
   C        4.82333         0.20991         3.20077
   N        5.69854         0.77638         3.67971
   C        3.65182        -1.79262         3.31072
   N        3.64324        -2.79235         3.87455
   C        1.85969        -0.84194         1.02542
   C        1.27763        -1.96508         1.52886
   C        0.30544        -2.77217         0.89269
   S       -0.68589        -3.89432         1.84816
   C       -1.36950        -4.38785         0.31078
   N       -0.82979        -3.74826        -0.70387
   N        0.06612        -2.88004        -0.38255
   C       -2.37513        -5.37665         0.20523
   C       -2.86430        -5.77588        -0.99736
   C       -3.85318        -6.76716        -1.18723
   N       -4.23939        -7.14819        -2.45785
   C       -5.17643        -8.12229        -2.35279
   C       -5.99100        -8.98371        -3.07922
   C       -6.70358        -9.73308        -2.13394
   N       -6.33613        -9.33573        -0.86368
   C       -5.39981        -8.35869        -0.96824
   C       -4.57269        -7.51410        -0.24094
   C       -7.65753       -10.76816        -2.31599
   C       -8.02650       -11.28369        -3.51146
   C       -8.96621       -12.34621        -3.70275
   C       -9.76193       -12.92714        -2.69651
   N      -10.58634       -13.91844        -2.92429
   C      -10.70155       -14.36523        -4.17835
   N      -10.00594       -13.88030        -5.21443
   C       -9.15887       -12.91054        -4.97817
   C      -11.58571       -15.48281        -4.37595
   C      -11.98290       -16.04552        -5.54013
   C      -12.54796       -17.42805        -5.53677
   O      -12.97654       -18.03995        -4.59038
   C      -12.40095       -17.89731        -6.93250
   C      -11.92554       -16.84518        -7.73840
   C      -11.81480       -15.63726        -6.92492
   C      -11.79790       -14.35836        -7.39944
   C      -11.99996       -13.21608        -6.59153
   N      -12.26436       -12.25417        -6.02441
   C      -11.68558       -14.03212        -8.76774
   N      -11.57426       -13.72402        -9.86725
   C      -11.67292       -17.06627        -9.08208
   C      -11.90698       -18.33352        -9.60264
   C      -12.39537       -19.36820        -8.80017
   C      -12.64457       -19.15294        -7.45106
  Br      -12.71732       -21.07774        -9.53770
  Br      -11.54680       -18.64234       -11.43151
   H        4.69056         2.23666         1.90534
   H        1.38654         2.25183        -1.81494
   H        1.55861        -2.30042         2.51892
   H       -2.73233        -5.81074         1.12594
   H       -2.45547        -5.30653        -1.88233
   H       -3.86309        -6.75872        -3.30544
   H       -6.07588        -9.06989        -4.14291
   H       -6.70451        -9.72723        -0.01375
   H       -4.48515        -7.42966         0.82274
   H       -8.08822       -11.16776        -1.40706
   H       -7.57428       -10.89584        -4.41379
   H       -9.73055       -12.57814        -1.67268
   H       -8.60101       -12.54968        -5.83435
   H      -11.89445       -15.97829        -3.46290
   H      -11.29196       -16.29048        -9.72680
   H      -13.01818       -19.94629        -6.82233
*
