# ORCA input file
# SCF done       -189.754903292152          0.000575565789
! CAM-B3LYP def2-SVP def2/J RIJCOSX Grid4 TightSCF
%maxcore 5000
%tddft
    Mode sTDDFT
    Ethresh 5.0
    maxcore 5000
end

%pal
  nprocs 6
  end
* xyz 0 2
   C        7.37849        -8.41501         1.12029
   C        7.12767        -9.64312         1.64704
   S        5.45340        -9.82993         2.02266
   C        5.08087        -8.22086         1.45989
  Cl        3.51818        -7.57572         1.58212
   C        6.20606        -7.60055         1.00831
   C        6.56114        -6.28141         0.48993
   O        5.81434        -5.39548         0.13741
   C        8.05576        -6.30776         0.37679
   C        8.52703        -7.64343         0.68566
   C        9.81408        -8.11816         0.65137
   C       10.10583        -9.45664         0.98660
   N       10.35750       -10.54686         1.24117
   C       10.95208        -7.37657         0.28175
   N       11.91643        -6.82298        -0.00480
   C        8.81721        -5.25686        -0.06842
   C        8.39349        -3.91459        -0.09894
   S        8.98547        -2.77857        -1.27791
   C        7.89646        -1.47863        -0.69869
   S        7.83240         0.01583        -1.42520
   C        7.19518        -1.95677         0.38791
   C        7.47406        -3.27406         0.75317
   C        6.81867        -3.73560         1.92656
   C        5.86763        -2.90591         2.43087
   S        5.90785        -1.34625         1.47475
   O        6.39184        -0.28741         2.31560
   O        4.69582        -1.12402         0.74711
   C        5.00124        -3.28670         3.48143
   N        4.01634        -2.54992         4.07356
   C        3.66220        -1.16383         3.85744
   C        2.47227        -1.03244         2.91106
   C        3.26482        -3.31959         4.99611
   O        2.34623        -2.87947         5.64917
   C        3.87783        -4.62836         4.94985
   C        4.95367        -4.57743         4.03947
   C        5.55399        -5.88953         4.01801
   O        6.52977        -6.33345         3.43409
   N        4.76729        -6.67023         4.88433
   C        5.18880        -8.02255         5.18227
   C        5.63689        -8.18720         6.63001
   C        3.75109        -5.92819         5.44119
   C        2.69188        -6.34074         6.29667
   C        2.32612        -7.61607         6.55043
   C        1.24131        -8.04385         7.38505
   C        0.44863        -7.25189         8.17692
   S       -0.69700        -8.14558         9.07975
   C       -0.13333        -9.61843         8.42579
   C        0.88898        -9.43465         7.53576
   C        1.54267       -10.52470         6.81642
   O        2.22772       -10.41837         5.82790
   O        1.31134       -11.73340         7.40755
   C        1.93292       -12.79297         6.83649
   C        2.12538       -13.95928         7.46361
   C        2.81383       -15.05256         6.84882
   C        3.76035       -15.03933         5.87806
   C        4.05224       -16.33641         5.17401
   O        3.70030       -17.43311         5.53084
   C        4.78978       -15.94383         3.97037
   C        5.27231       -16.54842         2.84721
   S        6.04673       -15.37575         1.80750
   C        5.72077       -14.08779         2.90694
   C        5.05095       -14.53488         4.00378
   C        4.54003       -13.98239         5.24468
   C        4.93847       -12.77175         5.74480
   C        5.77706       -11.91010         5.00897
   N        6.44429       -11.17624         4.43147
   C        4.62640       -12.24060         7.01095
   N        4.44243       -11.73899         8.02707
  Cl        5.18481       -18.18430         2.42121
   H        7.80335       -10.44564         1.86588
   H        9.81240        -5.45315        -0.44873
   H        7.06277        -4.69010         2.36821
   H        4.52503        -0.62061         3.47527
   H        3.38765        -0.76312         4.83874
   H        1.62958        -1.60765         3.28778
   H        2.73759        -1.37780         1.91566
   H        2.18212         0.01187         2.84534
   H        6.04111        -8.21307         4.52317
   H        4.40258        -8.73679         4.92497
   H        6.45622        -7.50586         6.84634
   H        5.98311        -9.20553         6.78205
   H        4.82694        -7.98985         7.32734
   H        2.12577        -5.51209         6.70048
   H        2.85450        -8.42583         6.07895
   H        0.48407        -6.18598         8.27998
   H       -0.58674       -10.54655         8.71167
   H        2.25824       -12.62748         5.81445
   H        1.71488       -14.11385         8.45047
   H        2.51815       -16.04556         7.17385
   H        6.03104       -13.09220         2.65905
*
