# ORCA input file
# SCF done       -167.466054515886          0.000490657183
! CAM-B3LYP def2-SVP def2/J RIJCOSX Grid4 TightSCF
%maxcore 5000
%tddft
    Mode sTDDFT
    Ethresh 5.0
    maxcore 5000
end

%pal
  nprocs 6
  end
* xyz 0 1
   C        1.02790         1.14618        -2.24330
   C        0.98368         0.56943        -1.00142
   C        1.24971        -0.79534        -0.75868
   N        1.44809        -1.89449        -0.49425
   C        0.71720         1.24250         0.21007
   N        0.52947         1.71982         1.23770
   C        1.40951         0.46791        -3.47442
   C        1.53362         1.44228        -4.50446
   C        1.89013         1.10629        -5.77886
   C        2.13395        -0.24986        -6.08956
   C        2.00204        -1.23353        -5.06670
   C        1.63837        -0.85362        -3.75453
   C        2.23998        -2.58494        -5.39011
   C        2.59203        -2.94886        -6.66134
   C        2.72257        -1.97947        -7.66714
   C        2.49908        -0.65858        -7.38728
   C        1.21590         2.77521        -3.96796
   O        1.28458         3.82237        -4.57607
   C        0.78691         2.54787        -2.56229
   C        0.13082         3.40490        -1.72780
   C       -0.20012         4.77241        -1.87128
   S       -1.30122         5.43342        -0.67351
   C       -1.26729         6.99357        -1.41384
   C       -0.41205         6.98788        -2.52371
   C        0.18149         5.74573        -2.77356
   C       -0.19050         8.13852        -3.30149
   N       -0.02054         9.08769        -3.92191
   C       -2.03773         8.09524        -0.96743
   C       -2.87776         8.04903         0.09474
   C       -3.71671         9.11352         0.51569
   S       -4.78634         8.88136         1.87251
   C       -5.47111        10.46513         1.69609
   C       -4.86026        11.13759         0.63313
   C       -3.87957        10.37399        -0.01982
   C       -5.15207        12.45163         0.22778
   N       -5.35098        13.52068        -0.13834
   C       -6.52333        10.85969         2.56260
   C       -7.27126        11.98080         2.42262
   C       -8.35652        12.33733         3.26865
   S       -9.36794        13.68313         2.83488
   C      -10.39266        13.45070         4.21646
   C       -9.93082        12.37266         4.98239
   C       -8.79462        11.75387         4.44179
   C      -10.50061        11.91328         6.18310
   N      -10.90983        11.49151         7.16855
   C      -11.50987        14.30536         4.37432
   C      -12.42676        14.22826         5.37623
   C      -13.59647        15.01582         5.52788
   C      -14.01140        16.17665         4.93289
   C      -15.31273        16.77931         5.19807
   C      -16.40801        16.15508         5.73494
   C      -17.64990        16.79132         5.94681
   N      -18.68220        17.24981         6.15142
   C      -16.49013        14.79397         6.10081
   N      -16.66101        13.69679         6.39383
   C      -15.29201        18.14553         4.69271
   C      -14.05306        18.35507         4.02598
   C      -13.23561        17.13362         4.09815
   O      -12.14724        16.98502         3.58147
   C      -13.74638        19.54108         3.42292
   C      -14.68511        20.59548         3.46355
   C      -15.92499        20.39794         4.13773
   C      -16.21335        19.15776         4.75225
   C      -16.85436        21.45745         4.17283
   C      -16.57553        22.65353         3.56949
   C      -15.35473        22.84652         2.90559
   C      -14.42949        21.83953         2.85393
   H        1.98083         1.86620        -6.54081
   H        1.54125        -1.62245        -3.00464
   H        2.13973        -3.32748        -4.61215
   H        2.77198        -3.98651        -6.89905
   H        3.00064        -2.28456        -8.66478
   H        2.59778         0.09233        -8.15744
   H       -0.24742         2.97780        -0.80574
   H        0.85727         5.56017        -3.58858
   H       -1.93545         9.00084        -1.55001
   H       -2.94919         7.13114         0.66501
   H       -3.31963        10.74434        -0.85967
   H       -6.74434        10.16571         3.36216
   H       -7.07609        12.65498         1.60126
   H       -8.31481        10.91300         4.90977
   H      -11.61616        15.06394         3.61241
   H      -12.31274        13.45103         6.12050
   H      -14.27311        14.61481         6.27437
   H      -12.79982        19.67109         2.91951
   H      -17.15804        19.04303         5.25924
   H      -17.79361        21.30365         4.68350
   H      -17.29495        23.45803         3.60002
   H      -15.15130        23.79691         2.43529
   H      -13.48784        21.98184         2.34414
*
