# ORCA input file
# SCF done       -152.445652501230          0.000957622787
! CAM-B3LYP def2-SVP def2/J RIJCOSX Grid4 TightSCF
%maxcore 5000
%tddft
    Mode sTDDFT
    Ethresh 5.0
    maxcore 5000
end

%pal
  nprocs 6
  end
* xyz 0 1
   C       -0.35026         0.06951         4.87841
   O        0.84769         0.65506         4.93342
   C        1.09153         1.24663         3.74157
   C        0.01127         1.03113         2.89437
   C       -0.92953         0.25736         3.65059
   C       -2.18161        -0.20732         3.21355
   N       -3.20075        -0.58496         2.85411
   C       -0.15895         1.45908         1.57199
   N       -0.31593         1.79789         0.48748
   C        2.33039         1.93831         3.57326
   C        2.69759         2.57707         2.44612
   C        3.93893         3.28154         2.23754
   C        4.16581         3.88973         1.00175
   C        5.34719         4.55537         0.72041
   N        5.41089         5.10913        -0.61346
   O        4.45552         5.75520        -0.98009
   O        6.38337         4.86506        -1.29562
   C        6.35791         4.70405         1.69053
   C        6.08962         4.11711         2.94316
   C        4.94343         3.41145         3.20814
   C        7.58175         5.46342         1.61030
   C        8.29600         5.86059         0.53258
   C        9.48390         6.63218         0.67297
   N       10.21041         7.08915        -0.39909
   C        9.88638         6.92657        -1.79749
   C        8.79218         7.89213        -2.24385
   C       11.32985         7.83609         0.00376
   O       12.12150         8.33780        -0.76902
   C       11.27406         7.81295         1.44912
   C       10.13148         7.06310         1.82976
   C       10.09138         7.02372         3.27384
   O        9.31499         6.50482         4.05514
   N       11.21189         7.76725         3.67551
   C       11.54465         7.92742         5.07001
   C       12.66611         6.98434         5.49901
   C       11.92669         8.24500         2.59923
   C       13.08808         9.05000         2.71442
   C       13.75793         9.52760         1.63669
   C       14.91146        10.35070         1.72039
   S       15.64313        10.80748         3.22830
   C       16.87409        11.73053         2.42572
   C       17.81210        12.40670         3.29105
   O       18.73284        13.12256         2.97836
   C       16.71037        11.67895         1.03493
   C       15.60140        10.89728         0.65994
   C       17.55282        12.32694         0.06731
   O       18.70054        12.91058         0.44256
   C       19.29955        13.44309        -0.62959
   C       18.52881        13.20213        -1.75927
   C       17.38690        12.47348        -1.30679
   C       16.33491        12.04348        -2.12640
   N       15.48937        11.70925        -2.82527
   C       18.81237        13.59904        -3.07288
   N       19.05569        13.92355        -4.14513
   C       20.54745        14.14496        -0.49664
   C       21.11942        14.36038         0.68652
   H       -0.70184        -0.44980         5.74826
   H        2.96924         1.90898         4.44426
   H        2.01923         2.57742         1.60359
   H        3.40701         3.83840         0.23377
   H        6.83227         4.23224         3.71857
   H        4.81333         2.97220         4.18409
   H        7.98294         5.71917         2.58421
   H        8.01068         5.59087        -0.47168
   H        9.58956         5.89226        -1.98831
   H       10.80834         7.13868        -2.34588
   H        7.86661         7.71239        -1.70239
   H        8.60236         7.76115        -3.30505
   H        9.10548         8.91869        -2.06980
   H       10.63346         7.69061         5.62652
   H       11.81551         8.96887         5.26512
   H       12.36440         5.95227         5.33824
   H       12.87992         7.12349         6.55505
   H       13.57384         7.17177         4.92977
   H       13.43892         9.29881         3.70733
   H       13.41734         9.29133         0.63638
   H       17.59060        12.20243         4.35878
   H       15.30490        10.72878        -0.35945
   H       20.98047        14.49077        -1.42498
   H       20.65642        14.01390         1.59610
   H       22.05265        14.88818         0.77063
*
