# ORCA input file
# SCF done       -165.452861074839          0.000398920266
! CAM-B3LYP def2-SVP def2/J RIJCOSX Grid4 TightSCF
%maxcore 5000
%tddft
    Mode sTDDFT
    Ethresh 5.0
    maxcore 5000
end

%pal
  nprocs 6
  end
* xyz 0 1
   C       -0.15928         1.06395         1.92077
   S       -0.77209        -0.34219         2.68547
   C       -0.37036        -1.33056         1.31968
   C        0.22461        -0.56743         0.34081
   C        0.34182         0.79991         0.68860
   C        0.76513        -1.09154        -0.94959
   F        1.33211        -2.30365        -0.82907
   F       -0.18146        -1.20835        -1.90235
   F        1.70477        -0.28359        -1.45992
   C       -0.67134        -2.75133         1.34940
   C       -1.14046        -3.42597         0.22440
   C       -1.42483        -4.77899         0.29035
   N       -2.05077        -5.35963        -0.87562
   O       -1.58889        -5.07261        -1.95691
   O       -3.02236        -6.06179        -0.69624
   C       -1.21551        -5.52661         1.46062
   C       -0.79877        -4.81646         2.59439
   C       -0.53976        -3.46672         2.54508
   C       -1.35125        -6.96032         1.55763
   C       -1.13332        -7.84130         0.55898
   C       -1.26079        -9.24679         0.75150
   N       -1.13859       -10.16630        -0.26087
   C       -0.87158        -9.89020        -1.65257
   C        0.61506        -9.66002        -1.91304
   C       -1.31189       -11.48254         0.20000
   O       -1.25275       -12.45995        -0.52002
   C       -1.55957       -11.33663         1.61711
   C       -1.52538        -9.94909         1.92225
   C       -1.75358        -9.80180         3.33991
   O       -1.80153        -8.82399         4.06381
   N       -1.91211       -11.11667         3.80583
   C       -2.22391       -11.38162         5.18871
   C       -3.71179       -11.65763         5.39321
   C       -1.80380       -12.04199         2.78984
   C       -1.90675       -13.44542         2.99261
   C       -1.81396       -14.33267         1.97549
   C       -1.88510       -15.76526         2.09134
   C       -1.80544       -16.53730         0.92910
   C       -1.83422       -17.91962         0.97411
   N       -1.72733       -18.58512        -0.30430
   O       -2.24331       -18.03351        -1.25070
   O       -1.12161       -19.63475        -0.36663
   C       -1.98112       -18.61912         2.19161
   C       -2.07105       -17.82567         3.34677
   C       -2.01660       -16.45427         3.30701
   C       -2.06343       -20.05873         2.25311
   C       -2.48572       -20.77107         3.31636
   C       -2.54765       -22.19925         3.35016
   S       -3.16156       -22.98774         4.77986
   C       -2.92487       -24.53221         4.09950
   C       -2.40161       -24.45070         2.83872
   C       -2.18248       -23.12765         2.40568
   C       -2.06966       -25.64337         2.00379
   F       -2.56732       -26.78088         2.51234
   F       -2.54335       -25.54025         0.75253
   F       -0.74130       -25.82973         1.88842
   H       -0.20128         2.00550         2.42980
   H        0.78718         1.53502         0.04375
   H       -1.33246        -2.90596        -0.70141
   H       -0.66125        -5.35932         3.51673
   H       -0.21255        -2.94841         3.43403
   H       -1.57920        -7.33872         2.54578
   H       -0.83527        -7.50942        -0.42514
   H       -1.46437        -9.02979        -1.97347
   H       -1.20513       -10.77245        -2.20595
   H        0.98901        -8.81219        -1.34297
   H        0.77509        -9.46641        -2.96987
   H        1.18245       -10.54367        -1.63099
   H       -1.94051       -10.47981         5.73891
   H       -1.61728       -12.21718         5.54986
   H       -4.29407       -10.79826         5.07034
   H       -3.91283       -11.83781         6.44573
   H       -4.03149       -12.52519         4.81985
   H       -2.05947       -13.78204         4.00749
   H       -1.67129       -13.95331         0.97230
   H       -1.70806       -16.05032        -0.03068
   H       -2.16404       -18.31253         4.30413
   H       -2.07213       -15.90556         4.23403
   H       -1.76665       -20.59543         1.36570
   H       -2.82226       -20.28317         4.22043
   H       -3.17950       -25.41775         4.64699
   H       -1.77454       -22.88550         1.44194
*
