# ORCA input file
# SCF done       -160.394383832673          0.000701256265
! CAM-B3LYP def2-SVP def2/J RIJCOSX Grid4 TightSCF
%maxcore 5000
%tddft
    Mode sTDDFT
    Ethresh 5.0
    maxcore 5000
end

%pal
  nprocs 6
  end
* xyz 0 1
   C       -3.18360        -1.55724        -0.24282
   N       -2.67222        -2.38083         0.60098
   C       -1.35994        -2.52804         0.36333
   C       -0.83969        -1.78718        -0.70804
   S       -2.09930        -0.86654        -1.43281
   N        0.46480        -1.92482        -0.95371
   C        1.00509        -2.75365        -0.11124
   S       -0.11017        -3.45059         1.09457
   C        2.38099        -3.09523        -0.12415
   C        3.33432        -2.61463        -1.00526
   C        4.59335        -3.15117        -0.74372
   C        4.58979        -4.04239         0.34799
   S        3.04128        -4.21865         1.04496
   C        5.90232        -4.52981         0.53921
   C        6.74486        -3.95403        -0.43400
   C        5.95266        -3.04318        -1.25033
   C        6.40371        -2.21302        -2.23174
   C        7.77285        -2.08620        -2.55792
   N        8.87988        -1.92576        -2.80608
   C        5.53628        -1.36784        -2.95824
   N        4.84218        -0.67940        -3.55670
   C        8.05785        -4.40012        -0.35338
   C        8.23026        -5.29700         0.69535
   S        6.73812        -5.59346         1.57987
   C        9.43263        -5.92527         1.06810
   C       10.64452        -5.91437         0.36228
   C       11.69700        -6.62505         1.03827
   N       12.93863        -6.64107         0.54832
   C       13.13732        -6.03851        -0.60258
   C       14.53629        -5.97311        -1.10070
   O       15.48145        -6.34092        -0.43863
   C       14.68803        -5.38858        -2.44553
   C       13.67034        -4.90232        -3.16332
   C       12.26894        -4.90799        -2.70569
   O       11.35255        -4.53685        -3.40512
   C       12.06268        -5.44119        -1.33354
   N       10.84873        -5.36315        -0.83627
   C       11.27986        -7.20958         2.24297
   S        9.60777        -6.84326         2.53092
   C       12.06252        -7.97299         3.12845
   C       13.34690        -8.45159         2.89366
   C       13.83412        -9.16370         3.98226
   C       12.93040        -9.21144         5.06373
   S       11.46118        -8.41272         4.72288
   C       13.53824        -9.90899         6.13182
   C       14.82818       -10.31209         5.73221
   C       15.04273        -9.88599         4.35798
   C       16.11664       -10.16222         3.56667
   C       17.23757       -10.87622         4.04446
   N       18.15421       -11.45212         4.42149
   C       16.16830        -9.81438         2.19797
   N       16.21427        -9.58994         1.07549
   C       15.50940       -11.00533         6.73058
   C       14.74799       -11.12448         7.88048
   S       13.16987       -10.38158         7.73049
   C       15.14308       -11.76198         9.08356
   N       16.30172       -12.32702         9.24754
   C       16.40414       -12.84410        10.47356
   C       15.29433       -12.68872        11.31697
   S       14.05299       -11.83443        10.49417
   N       15.40940       -13.21223        12.54699
   C       16.56180       -13.76398        12.68540
   S       17.64136       -13.70071        11.30725
   H       -4.22082        -1.28930        -0.24007
   H        3.08932        -1.91551        -1.78307
   H        8.86915        -4.12297        -1.00241
   H       15.70204        -5.36910        -2.82163
   H       13.82661        -4.47819        -4.14605
   H       13.86595        -8.25669         1.97236
   H       16.50243       -11.40889         6.66122
   H       16.87181       -14.24655        13.59021
*
