# ORCA input file
# SCF done       -223.686342764873          0.000978508260
! CAM-B3LYP def2-SVP def2/J RIJCOSX Grid4 TightSCF
%maxcore 5000
%tddft
    Mode sTDDFT
    Ethresh 5.0
    maxcore 5000
end

%pal
  nprocs 6
  end
* xyz 0 1
   C       -7.91659         1.01337        10.17605
   C       -8.89437         1.27535        11.09426
   F       -8.85889         2.40656        11.81207
   C       -9.94993         0.36445        11.29776
   F      -10.89642         0.64778        12.20409
   C      -10.01326        -0.79663        10.57964
   C       -9.02184        -1.09417         9.62474
   C       -7.95329        -0.17447         9.41834
   C       -6.94710        -0.45102         8.46387
   C       -7.01217        -1.60892         7.73480
   C       -8.08648        -2.51551         7.94151
   C       -9.06770        -2.28146         8.86062
   C       -7.94980        -3.66287         7.02061
   O       -8.68852        -4.62681         6.99071
   C       -6.77230        -3.36168         6.17983
   C       -6.14651        -2.15658         6.69373
   C       -4.92825        -1.63679         6.33551
   C       -4.02631        -2.20175         5.40932
   N       -3.22565        -2.60177         4.68876
   C       -4.38091        -0.46231         6.89267
   N       -3.88308         0.48786         7.30182
   C       -6.37045        -3.97800         5.01895
   C       -6.84432        -5.12324         4.36241
   C       -7.75009        -6.12069         4.72058
   C       -7.95338        -7.07784         3.74246
   C       -7.17806        -6.81395         2.59195
   S       -6.20037        -5.41985         2.74750
   C       -7.37480        -7.69851         1.51357
   C       -8.31404        -8.72392         1.72822
  Si       -8.99917        -8.61455         3.47425
   C       -8.46516       -10.05292         4.54413
   C      -10.83775        -8.28060         3.51243
   C       -8.49555        -9.49388         0.59040
   C       -7.71799        -9.08069        -0.48886
   S       -6.71273        -7.71028        -0.07445
   C       -7.74765        -9.61687        -1.78691
   C       -8.61366       -10.61386        -2.26240
   C       -8.45426       -10.86353        -3.66838
   N       -9.20711       -11.75182        -4.31298
   C      -10.10230       -12.40532        -3.60274
   C      -10.95082       -13.38833        -4.31687
   O      -10.88645       -13.56318        -5.51626
   C      -11.88862       -14.13472        -3.46044
   C      -12.02354       -13.92406        -2.14645
   C      -11.24862       -12.92253        -1.39683
   O      -11.41202       -12.72817        -0.20859
   C      -10.25317       -12.17153        -2.19878
   N       -9.52126       -11.28737        -1.55365
   C       -7.45671       -10.08390        -4.26734
   S       -6.73078        -9.04449        -3.08109
   C       -7.11814       -10.10862        -5.62835
   C       -6.10037        -9.42040        -6.28329
   C       -6.06923        -9.65267        -7.64933
   C       -7.10144       -10.53270        -8.03254
   S       -8.06689       -11.08494        -6.72219
   C       -7.18884       -10.79444        -9.41489
   C       -6.23352       -10.15512       -10.22759
  Si       -5.06876        -9.14919        -9.15541
   C       -5.14477        -7.31271        -9.51009
   C       -3.32730        -9.83205        -9.13257
   C       -6.45414       -10.43480       -11.56658
   C       -7.52950       -11.28846       -11.80326
   S       -8.31157       -11.73612       -10.29978
   C       -8.03036       -11.63669       -13.07175
   C       -8.98214       -12.55438       -13.41409
   C       -9.74050       -12.37819       -14.67904
   O       -9.45861       -11.64865       -15.60248
   C      -10.94133       -13.22839       -14.52753
   C      -12.03487       -13.32363       -15.33828
   C      -13.09491       -14.18014       -14.96328
   C      -13.00071       -14.92187       -13.74994
   C      -14.06732       -15.76429       -13.37764
   C      -15.17377       -15.86779       -14.17306
   C      -15.26509       -15.13552       -15.37328
   C      -14.24798       -14.30944       -15.76172
   F      -16.36321       -15.25475       -16.13337
   F      -16.18712       -16.66951       -13.81685
   C      -11.85003       -14.81135       -12.93528
   C      -10.83463       -13.98017       -13.32261
   C       -9.54178       -13.68439       -12.71027
   C       -8.87150       -14.50618       -11.84088
   C       -7.51225       -14.32569       -11.51393
   N       -6.39254       -14.22588       -11.28072
   C       -9.43012       -15.67243       -11.28209
   N       -9.84757       -16.62958       -10.80548
   H       -7.11478         1.72101        10.03354
   H      -10.82808        -1.48366        10.74664
   H       -6.15506         0.26752         8.32972
   H       -9.87045        -2.98986         8.99835
   H       -5.57460        -3.47912         4.47764
   H       -8.24551        -6.11829         5.67346
   H       -7.38984       -10.21999         4.51061
   H       -8.94269       -10.97888         4.23004
   H       -8.73189        -9.89592         5.58739
   H      -11.12067        -7.43723         2.88456
   H      -11.18246        -8.05808         4.52029
   H      -11.40410        -9.14253         3.16468
   H       -9.17295       -10.32413         0.50533
   H      -12.48378       -14.87740        -3.97448
   H      -12.73174       -14.49023        -1.55647
   H       -5.41856        -8.77665        -5.75551
   H       -4.71633        -7.07443       -10.48156
   H       -4.58853        -6.73869        -8.77179
   H       -6.16441        -6.93163        -9.50887
   H       -3.31085       -10.90646        -8.95864
   H       -2.72322        -9.37159        -8.35317
   H       -2.81460        -9.65489       -10.07591
   H       -5.85167       -10.05021       -12.37034
   H       -7.69089       -11.00693       -13.88929
   H      -12.09361       -12.75201       -16.25204
   H      -14.01179       -16.33421       -12.46337
   H      -14.33355       -13.75506       -16.68322
   H      -11.80460       -15.37577       -12.01736
*
