# ORCA input file
# SCF done       -199.339974454776          0.000415228265
! CAM-B3LYP def2-SVP def2/J RIJCOSX Grid4 TightSCF
%maxcore 5000
%tddft
    Mode sTDDFT
    Ethresh 5.0
    maxcore 5000
end

%pal
  nprocs 6
  end
* xyz 0 1
   C        2.69873         1.24798         0.64687
   C        3.75055         1.50860         1.47988
   F        4.42397         2.66097         1.37381
   C        4.14027         0.57162         2.45815
   F        5.17506         0.85338         3.26062
   C        3.47260        -0.61379         2.58955
   C        2.38565        -0.91192         1.74515
   C        1.98997         0.03468         0.75611
   C        0.90267        -0.24274        -0.10417
   C        0.23313        -1.43187         0.01803
   C        0.63873        -2.37152         1.00643
   C        1.68118        -2.13132         1.85423
   C       -0.22295        -3.56327         0.92304
   O       -0.15775        -4.55035         1.63169
   C       -1.15952        -3.31439        -0.18305
   C       -0.89984        -1.98973        -0.71807
   C       -1.58217        -1.34593        -1.71749
   C       -2.68971        -1.85645        -2.42734
   N       -3.59400        -2.19367        -3.04988
   C       -1.26967        -0.04823        -2.17673
   N       -1.06844         1.00094        -2.59638
   C       -2.09422        -4.19921        -0.65500
   C       -2.41607        -5.50057        -0.23561
   C       -3.38927        -6.25566        -0.90195
   C       -3.55231        -7.50909        -0.35007
   C       -2.71280        -7.73930         0.76045
   S       -1.70524        -6.38065         1.10913
   C       -2.87037        -9.00083         1.31679
   C       -3.82288        -9.75403         0.64222
   S       -4.54209        -8.88929        -0.70332
   C       -4.21769       -11.08510         0.94030
   C       -5.17882       -11.75436         0.14759
   C       -5.58679       -13.10860         0.40756
   N       -6.48624       -13.69142        -0.39296
   C       -6.99708       -13.02966        -1.40067
   C       -6.60080       -11.67473        -1.65153
   N       -5.71629       -11.09124        -0.88230
   C       -7.15835       -10.95550        -2.73834
   N       -7.62593       -10.40513        -3.62672
   C       -7.93884       -13.67024        -2.24445
   N       -8.69766       -14.16144        -2.94724
   C       -5.06850       -13.86607         1.48276
   C       -4.11339       -13.19914         2.28515
   C       -3.69500       -11.83865         2.01803
   N       -2.78648       -11.42679         2.90356
   S       -2.48852       -12.60145         3.95090
   N       -3.48560       -13.70163         3.34956
   C       -5.49787       -15.20067         1.70833
   C       -5.07044       -16.04966         2.72023
   C       -5.69090       -17.28812         2.64678
   C       -6.60499       -17.40443         1.58214
   S       -6.68392       -15.94605         0.65370
   C       -7.24253       -18.63457         1.52491
   C       -6.82468       -19.48776         2.53752
   S       -5.60273       -18.74639         3.55940
   C       -7.18433       -20.83012         2.78424
   C       -8.26526       -21.53528         2.34584
   C       -8.19780       -23.02487         2.35783
   O       -7.37120       -23.70481         2.91886
   C       -9.31179       -23.46963         1.49741
   C       -9.61977       -24.73115         1.07661
   C      -10.72619       -24.91726         0.21780
   C      -11.49030       -23.78666        -0.19404
   C      -12.58618       -23.97848        -1.05919
   C      -12.91057       -25.23367        -1.49186
   C      -12.15576       -26.35137        -1.08186
   C      -11.08624       -26.19796        -0.24485
   F      -12.49614       -27.56954        -1.52230
   F      -13.95238       -25.41443        -2.31296
   C      -11.15256       -22.49282         0.26536
   C      -10.08280       -22.33813         1.10558
   C       -9.52726       -21.15135         1.75339
   C      -10.21085       -19.98347         1.97229
   C       -9.74911       -18.95466         2.81732
   N       -9.42599       -18.10765         3.52123
   C      -11.49533       -19.71974         1.45302
   N      -12.53336       -19.45567         1.04134
   H        2.41340         1.97624        -0.09618
   H        3.78331        -1.32058         3.34294
   H        0.63141         0.49501        -0.84143
   H        1.96534        -2.86293         2.59522
   H       -2.68850        -3.87383        -1.50042
   H       -3.93359        -5.88033        -1.74974
   H       -2.33202        -9.37794         2.16569
   H       -4.34678       -15.75509         3.45638
   H       -7.94217       -18.91677         0.75950
   H       -6.46341       -21.41513         3.34830
   H       -9.02675       -25.57555         1.39321
   H      -13.17668       -23.13446        -1.37975
   H      -10.51842       -27.06323         0.05941
   H      -11.74281       -21.65412        -0.06800
*
