# ORCA input file
# SCF done       -217.505227894935          0.000278066847
! CAM-B3LYP def2-SVP def2/J RIJCOSX Grid4 TightSCF
%maxcore 5000
%tddft
    Mode sTDDFT
    Ethresh 5.0
    maxcore 5000
end

%pal
  nprocs 6
  end
* xyz 0 1
   C       -1.20113        -1.17313         9.76182
   C       -0.86940        -1.63517        11.00478
   F       -0.41613        -0.78962        11.93812
   C       -0.99903        -3.00299        11.32028
   F       -0.66636        -3.42726        12.54584
   C       -1.45876        -3.89025        10.38762
   C       -1.80810        -3.44466         9.09812
   C       -1.67817        -2.06201         8.77773
   C       -2.02287        -1.59092         7.48969
   C       -2.48186        -2.47535         6.54952
   C       -2.60362        -3.85461         6.87890
   C       -2.28203        -4.33975         8.11381
   C       -3.09954        -4.58683         5.70401
   O       -3.33381        -5.78195         5.64222
   C       -3.24302        -3.59737         4.63053
   C       -2.90563        -2.28852         5.16313
   C       -2.99114        -1.08213         4.52026
   C       -3.44243        -0.88369         3.19777
   N       -3.80549        -0.63957         2.13619
   C       -2.65326         0.15321         5.11415
   N       -2.39354         1.18746         5.53829
   C       -3.57890        -3.87990         3.33153
   C       -3.90562        -5.10306         2.72421
   C       -4.15946        -5.19573         1.34961
   C       -4.45670        -6.48511         0.95246
   C       -4.44670        -7.39255         2.03801
   S       -4.05405        -6.66694         3.52573
   C       -4.75045        -8.68106         1.52953
   C       -4.94824        -8.59317         0.14096
   C       -4.77658        -7.20922        -0.26927
   C       -4.89318        -6.70397        -1.53006
   C       -5.21987        -7.52218        -2.63251
   N       -5.49148        -8.19116        -3.52307
   C       -4.69897        -5.33526        -1.81524
   N       -4.53975        -4.22557        -2.05335
   C       -5.23853        -9.82694        -0.44280
   C       -5.27789       -10.84288         0.49281
   S       -4.93581       -10.27169         2.11928
   C       -5.49916       -12.22814         0.21951
   C       -5.77082       -13.26172         1.09006
   C       -5.92275       -13.09187         2.56504
   O       -5.17764       -13.57857         3.36334
   O       -6.97680       -12.34742         2.95013
   C       -5.81766       -14.53321         0.44543
   C       -5.60047       -14.42283        -0.90580
   S       -5.32076       -12.81774        -1.41301
   C       -6.09044       -15.78951         1.09991
   C       -5.67860       -17.03492         0.67926
   C       -6.14383       -18.04984         1.52106
   C       -6.92418       -17.55972         2.57998
   S       -7.07184       -15.86262         2.54687
   C       -7.34939       -18.65491         3.37791
   C       -6.83256       -19.83815         2.81451
   C       -6.05106       -19.49519         1.63703
   C       -5.36126       -20.35610         0.83500
   C       -5.34411       -21.74372         1.09010
   N       -5.34683       -22.86951         1.30770
   C       -4.63813       -19.91214        -0.29176
   N       -4.06570       -19.54477        -1.21471
   C       -7.17548       -20.97486         3.53380
   C       -7.95021       -20.67733         4.64702
   S       -8.27228       -18.95014         4.77268
   C       -8.52362       -21.54802         5.59668
   C       -8.21946       -22.84674         5.87813
   C       -9.23692       -23.66758         6.59535
   O      -10.23174       -23.25898         7.14762
   C       -8.79530       -25.06572         6.43121
   C       -9.43405       -26.21590         6.79540
   C       -8.82828       -27.45865         6.50431
   C       -7.57219       -27.48398         5.83099
   C       -6.97764       -28.72739         5.53639
   C       -7.59867       -29.89028         5.89664
   C       -8.84026       -29.86396         6.56353
   C       -9.44346       -28.67434         6.86156
   F       -9.42686       -31.01946         6.90312
   F       -7.03163       -31.07097         5.61828
   C       -6.93192       -26.27591         5.47093
   C       -7.53111       -25.08343         5.77625
   C       -7.09673       -23.70365         5.56353
   C       -5.79578       -23.32036         5.36409
   C       -5.35557       -21.98341         5.39845
   N       -4.95439       -20.90846         5.44055
   C       -4.72675       -24.22676         5.19998
   N       -3.82231       -24.92002         5.06754
   H       -1.09627        -0.12308         9.53756
   H       -1.55201        -4.93388        10.64424
   H       -1.91001        -0.53964         7.28092
   H       -2.38600        -5.39111         8.33490
   H       -3.58481        -3.05031         2.63470
   H       -4.11574        -4.33919         0.70019
   H       -5.41804        -9.99197        -1.49000
   H       -7.51300       -12.03374         2.20969
   H       -5.60726       -15.21253        -1.62988
   H       -5.05240       -17.18973        -0.17993
   H       -6.92242       -21.97928         3.24737
   H       -9.37903       -21.15934         6.14201
   H      -10.38847       -26.17848         7.29807
   H       -6.02605       -28.76517         5.02960
   H      -10.39376       -28.67113         7.37209
   H       -5.98796       -26.32394         4.95201
*
