# ORCA input file
# SCF done       -193.775209196321          0.000193447227
! CAM-B3LYP def2-SVP def2/J RIJCOSX Grid4 TightSCF
%maxcore 5000
%tddft
    Mode sTDDFT
    Ethresh 5.0
    maxcore 5000
end

%pal
  nprocs 6
  end
* xyz 0 1
   C       -0.59491         8.70244        -5.25327
   C       -0.49805         9.54876        -4.18064
   C       -1.12703        10.80700        -4.10735
   N       -1.60397        11.84372        -3.98023
   C        0.30209         9.27857        -3.05190
   N        0.97764         9.11271        -2.13748
   C       -1.18273         9.04629        -6.54000
   C       -0.60706         8.20608        -7.53799
   C       -0.94320         8.33320        -8.85487
   C       -1.89451         9.30923        -9.23149
   C       -2.49415        10.12828        -8.23097
   C       -2.12126         9.98258        -6.87502
   C       -3.45448        11.08302        -8.62224
   C       -3.80352        11.22942        -9.93700
   C       -3.21005        10.42553       -10.92160
   C       -2.27673         9.48634       -10.57604
   C        0.30611         7.23960        -6.89544
   O        1.00878         6.40925        -7.42572
   C        0.11758         7.45156        -5.43350
   C        0.45571         6.47765        -4.54270
   C       -0.06354         6.32085        -3.23994
   C        0.48982         5.54152        -2.21423
   O        1.61578         4.85644        -2.47010
   C        2.14398         3.99348        -1.48252
   C       -0.26060         5.62073        -1.02277
   O        0.06127         5.03864         0.18034
   C        0.72276         5.91414         1.08289
   C       -1.40955         6.40030        -1.16673
   S       -1.55697         7.06527        -2.75306
   C       -2.40510         6.71439        -0.22741
   C       -3.40571         7.65832        -0.49347
   C       -4.31839         7.85248         0.59279
   N       -5.29083         8.76094         0.51239
   C       -5.37112         9.45154        -0.60693
   C       -6.41607        10.50520        -0.68636
   O       -7.20738        10.72317         0.20447
   C       -6.41304        11.29355        -1.93452
   C       -5.58633        11.07083        -2.96105
   C       -4.57934         9.99937        -2.96896
   O       -3.89472         9.75260        -3.94123
   C       -4.47410         9.23457        -1.70235
   N       -3.50709         8.34561        -1.62651
   C       -4.02287         7.02318         1.68645
   S       -2.60530         6.06199         1.36447
   C       -4.73910         6.91762         2.88398
   C       -4.34103         6.11253         3.96657
   O       -3.20070         5.40376         3.82591
   C       -2.84752         4.45377         4.81230
   C       -5.24524         6.18819         5.02397
   O       -5.12114         5.52186         6.21615
   C       -4.60893         6.29749         7.29193
   C       -6.36380         7.00448         4.73405
   S       -6.24627         7.72640         3.15266
   C       -7.40821         7.13978         5.66181
   C       -8.59053         7.82478         5.55614
   C       -9.61679         7.92278         6.57335
   C       -9.49493         7.59185         7.89981
   C      -10.53607         7.71400         8.84255
   N      -11.34366         7.78064         9.65612
   C       -8.30967         7.14037         8.51408
   N       -7.37111         6.80577         9.08663
   C      -10.79369         8.52281         5.95267
   C      -10.46840         8.87184         4.60970
   C       -9.08079         8.47257         4.33117
   O       -8.47408         8.61522         3.28604
   C      -11.36884         9.47142         3.77837
   C      -12.66888         9.74741         4.25985
   C      -13.00709         9.39243         5.59759
   C      -12.04843         8.77818         6.43735
   C      -14.30873         9.66580         6.06372
   C      -15.23340        10.26227         5.24976
   C      -14.89887        10.61275         3.93361
   C      -13.64346        10.36123         3.44935
   H       -0.49449         7.69572        -9.60235
   H       -2.60283        10.58739        -6.12318
   H       -3.90490        11.70079        -7.85939
   H       -4.53829        11.96596       -10.22679
   H       -3.49677        10.55351       -11.95488
   H       -1.81777         8.86382       -11.33044
   H        1.12951         5.70266        -4.89165
   H        2.89607         3.39546        -1.99510
   H        1.37362         3.34374        -1.06327
   H        2.62130         4.55692        -0.67680
   H        0.11991         6.79935         1.30046
   H        1.68768         6.23959         0.68122
   H        0.87464         5.34070         1.99456
   H       -7.14883        12.08594        -1.96946
   H       -5.62401        11.67467        -3.85743
   H       -2.04520         3.86411         4.37163
   H       -3.69128         3.80944         5.06401
   H       -2.48305         4.94227         5.71942
   H       -3.56281         6.57118         7.11493
   H       -4.68294         5.66543         8.17353
   H       -5.19163         7.20729         7.45224
   H       -7.24828         6.57213         6.57140
   H      -11.09154         9.73139         2.76771
   H      -12.33666         8.51982         7.44402
   H      -14.56148         9.39552         7.07854
   H      -16.22796        10.46743         5.61662
   H      -15.64050        11.08277         3.30512
   H      -13.37929        10.62872         2.43675
*
