# ORCA input file
# SCF done       -188.243031024066          0.000625755440
! CAM-B3LYP def2-SVP def2/J RIJCOSX Grid4 TightSCF
%maxcore 5000
%tddft
    Mode sTDDFT
    Ethresh 5.0
    maxcore 5000
end

%pal
  nprocs 6
  end
* xyz 0 1
   C       -6.61572         4.64198        -2.52456
   C       -6.99188         5.92516        -2.85505
   C       -6.31222         6.69685        -3.80565
   N       -5.83681         7.32258        -4.64721
   C       -8.16001         6.55753        -2.38574
   N       -9.09819         7.11229        -2.02459
   C       -5.39745         3.97832        -2.97208
   C       -5.46054         2.60529        -2.61415
   C       -4.45792         1.71667        -2.91322
   C       -3.32551         2.20755        -3.57314
   C       -3.24849         3.58779        -3.88615
   C       -4.27558         4.48069        -3.60214
   S       -1.74516         3.99188        -4.64808
   C       -1.25380         2.32529        -4.56245
   C       -2.16376         1.50376        -3.98106
  Br        0.41204         1.81935        -5.25151
   C       -6.71017         2.36643        -1.88084
   O       -7.12231         1.31181        -1.41870
   C       -7.39114         3.66647        -1.80312
   C       -8.62608         3.79766        -1.21933
   N       -9.26846         2.74318        -0.70536
   C      -10.60702         2.72632        -0.38296
   S      -11.15172         1.77664         0.95966
   C      -12.75605         2.37193         0.70414
   N      -13.77137         1.90741         1.55727
   O      -14.89454         2.33371         1.38072
   O      -13.44009         1.10638         2.41175
   C      -12.85744         3.24307        -0.34915
   C      -11.62948         3.44150        -1.00562
   C      -11.43652         4.26451        -2.18962
   C      -10.65721         3.85328        -3.21078
   C      -10.13049         4.60655        -4.29135
   S       -8.73947         3.89369        -5.08393
   C       -8.35360         5.35314        -5.90984
   C       -9.30310         6.34506        -5.66067
   C      -10.32000         5.91530        -4.74254
   C      -11.35073         6.81428        -4.41255
   C      -11.34477         8.08751        -4.92917
   C      -12.41470         9.03076        -4.58333
   O      -12.50552        10.15877        -4.99510
   C      -10.31317         8.51242        -5.80747
   C       -9.32008         7.66162        -6.17645
   N       -7.22474         5.52089        -6.64943
   C       -6.14002         4.67275        -6.76349
   C       -6.12466         3.31264        -6.66130
   S       -4.56251         2.66374        -6.97614
   C       -3.90702         4.22576        -7.23930
   C       -4.84275         5.20403        -7.08200
   N       -4.61710         6.57923        -7.12342
   C       -3.72096         7.19753        -7.91606
   C       -3.21649         6.69100        -9.07706
   C       -2.32933         7.36261        -9.93451
   C       -1.48651         8.42447        -9.71766
   C       -0.93081         9.03985        -8.54154
   C       -0.72111         8.45557        -7.31189
   C       -0.07733         9.08590        -6.23017
   N        0.42027         9.54937        -5.30436
   C       -1.06295         7.12982        -7.01242
   N       -1.31992         6.04622        -6.72570
   C       -0.36763        10.32846        -8.94179
   C       -0.38319        10.41027       -10.35565
   C       -1.01737         9.19038       -10.89859
   O       -1.16128         8.89059       -12.06362
   C        0.11765        11.49066       -11.03816
   C        0.64811        12.54711       -10.28840
   C        0.64275        12.46325        -8.87636
   C        0.14389        11.36481        -8.18575
   S        1.33193        13.88290        -8.14887
   C        1.62061        14.55743        -9.73002
   C        1.21940        13.76407       -10.75149
  Br        2.42049        16.24745        -9.88329
   H       -4.53704         0.67714        -2.63686
   H       -4.16544         5.52273        -3.85301
   H       -2.01946         0.44767        -3.84602
   H       -9.12948         4.75275        -1.16426
   H       -8.72030         1.87092        -0.68562
   H      -13.78800         3.69071        -0.64789
   H      -11.89645         5.23835        -2.17240
   H      -10.27636         2.83814        -3.17135
   H      -12.15857         6.49937        -3.77262
   H      -13.16690         8.61397        -3.88431
   H      -10.35657         9.52472        -6.17766
   H       -8.55184         7.98248        -6.86500
   H       -7.06061         6.46786        -6.96600
   H       -6.93503         2.64373        -6.46289
   H       -2.86375         4.35583        -7.44519
   H       -5.00516         7.09583        -6.33198
   H       -3.50218         8.21882        -7.63261
   H       -3.59047         5.73562        -9.41818
   H       -2.34673         7.03731       -10.97094
   H        0.10338        11.52216       -12.11627
   H        0.15705        11.34833        -7.10847
   H        1.32095        14.02480       -11.78911
*
