# ORCA input file
# SCF done       -198.246675140458          0.000419714167
! CAM-B3LYP def2-SVP def2/J RIJCOSX Grid4 TightSCF
%maxcore 5000
%tddft
    Mode sTDDFT
    Ethresh 5.0
    maxcore 5000
end

%pal
  nprocs 6
  end
* xyz 0 1
   C       -7.84850         0.22764         0.99902
   C       -6.64899        -0.29889         0.58311
   C       -5.96763        -1.33591         1.24897
   N       -5.36839        -2.17906         1.74867
   C       -5.90042         0.18638        -0.50749
   N       -5.21083         0.56329        -1.34598
   C       -8.53693        -0.11460         2.23854
   C       -9.60027         0.79993         2.42778
   C      -10.41600         0.76621         3.53070
   C      -10.17181        -0.21880         4.49384
   C       -9.11226        -1.13291         4.29129
   C       -8.28626        -1.09924         3.17433
   S       -8.98539        -2.26601         5.60338
   C      -10.33838        -1.50405         6.39627
   C      -10.86037        -0.45700         5.71521
  Br      -10.93525        -2.16392         8.04823
   C       -9.64842         1.74039         1.28683
   O      -10.43385         2.65651         1.15281
   C       -8.57629         1.30232         0.36852
   C       -8.37854         1.78781        -0.90281
   C       -9.01999         2.91967        -1.41723
   C       -8.76168         3.42452        -2.66241
   C       -9.27755         4.66328        -3.07336
   O      -10.03459         5.39548        -2.21696
   C      -10.27357         6.60963        -2.76615
   C       -9.70047         6.65152        -4.03625
   C       -9.06696         5.41097        -4.23570
   O       -8.37770         5.02468        -5.32244
   O       -9.71222         7.62124        -4.98435
   C      -10.98564         7.52304        -1.94491
   C      -11.12513         8.86304        -2.08175
   C      -11.80812         9.63847        -1.10294
   C      -11.88742        10.98498        -1.13777
   C      -12.48851        11.82333        -0.12580
   C      -12.86869        13.15029        -0.38747
   N      -12.89018        13.83891        -1.58720
   C      -13.27961        13.23791        -2.85146
   C      -14.48049        12.30794        -2.69258
   C      -13.16198        15.16784        -1.30057
   C      -13.44753        15.31153         0.07421
   C      -13.24343        14.01752         0.66459
   C      -13.34188        13.55622         1.96797
   C      -13.04483        12.22811         2.21723
   C      -12.61634        11.39203         1.19932
   C      -13.84629        16.53356         0.59682
   C      -13.95166        17.61075        -0.26508
   C      -13.58363        17.49299        -1.59571
   C      -13.11731        16.29201        -2.14397
   C      -12.50785        16.30613        -3.45040
   C      -11.52257        15.45423        -3.82945
   C      -10.88801        15.45455        -5.08677
   C      -10.01535        14.48265        -5.49472
   C       -9.32089        14.42360        -6.72793
   C       -8.53329        13.32659        -6.88020
   C       -8.55604        12.43401        -5.78196
   S       -9.62482        13.05390        -4.53475
   C       -7.85836        11.24982        -5.67979
   C       -6.98188        10.71594        -6.65372
   C       -6.41945         9.53098        -6.30612
   C       -6.80526         9.03442        -5.03312
   S       -7.93491        10.17135        -4.29411
   C       -6.34223         7.85743        -4.51555
   C       -6.59783         7.19835        -3.29276
   C       -6.01720         5.96823        -2.96714
   C       -6.47263         5.56908        -1.69066
   C       -6.17249         4.46776        -0.91847
   C       -6.79282         4.36835         0.33430
   C       -6.66859         3.42783         1.34853
   C       -7.54055         3.78454         2.42234
   C       -8.20352         4.94707         2.06669
   C       -7.75305         5.36213         0.77633
   C       -8.03796         6.46858         0.01744
   C       -7.38438         6.59839        -1.22513
   C       -7.44280         7.58372        -2.19941
   C       -7.70690         3.07889         3.66956
   C       -6.99745         2.02444         4.06395
   H      -11.21561         1.48019         3.65052
   H       -7.49226        -1.81908         3.06464
   H      -11.69648         0.12475         6.05811
   H       -7.66251         1.29093        -1.54541
   H       -9.70750         3.45167        -0.77757
   H       -8.10282         2.92017        -3.35406
   H       -8.36375         5.76377        -5.94628
   H      -10.06683         8.44012        -4.62005
   H      -11.40165         7.05040        -1.06429
   H      -10.67954         9.40139        -2.90853
   H      -12.27373         9.08678        -0.29803
   H      -11.42131        11.49970        -1.96662
   H      -12.44470        12.69915        -3.30799
   H      -13.55609        14.05099        -3.52344
   H      -14.22988        11.43397        -2.09748
   H      -14.80947        11.97462        -3.67346
   H      -15.30144        12.83429        -2.21010
   H      -13.63234        14.22175         2.76608
   H      -13.11324        11.84230         3.22338
   H      -12.32225        10.38391         1.44663
   H      -14.07097        16.63590         1.64717
   H      -14.28561        18.56734         0.10812
   H      -13.60081        18.36960        -2.22728
   H      -12.80144        17.10747        -4.11674
   H      -11.17634        14.70711        -3.12798
   H      -11.11394        16.24912        -5.78557
   H       -9.42445        15.20467        -7.46047
   H       -7.93676        13.13445        -7.75361
   H       -6.78881        11.22313        -7.58131
   H       -5.72657         8.98618        -6.92335
   H       -5.65160         7.32847        -5.16402
   H       -5.33452         5.41529        -3.58519
   H       -5.48244         3.70728        -1.25514
   H       -6.00252         2.58454         1.33492
   H       -8.93386         5.46325         2.66225
   H       -8.73277         7.22696         0.35051
   H       -8.00430         8.49892        -2.14258
   H       -8.47994         3.47365         4.31722
   H       -6.20886         1.60231         3.46435
   H       -7.17422         1.54818         5.01284
*
