# ORCA input file
# SCF done       -213.840610007025          0.000460559858
! CAM-B3LYP def2-SVP def2/J RIJCOSX Grid4 TightSCF
%maxcore 5000
%tddft
    Mode sTDDFT
    Ethresh 5.0
    maxcore 5000
end

%pal
  nprocs 6
  end
* xyz 0 1
   C       -6.08684        -2.94134         0.38425
   C       -7.04325        -3.75466         0.93643
   C       -6.92980        -5.15680         1.02771
   N       -6.88578        -6.29938         1.13187
   C       -8.27891        -3.30550         1.44872
   N       -9.31476        -3.02338         1.85540
   C       -4.85219        -3.38376        -0.25369
   C       -4.20285        -2.25697        -0.81435
   C       -3.01169        -2.34990        -1.49163
   C       -2.43386        -3.61686        -1.62496
   C       -3.08623        -4.73597        -1.05567
   C       -4.29082        -4.64170        -0.36906
   S       -2.19208        -6.20172        -1.32456
   C       -0.97286        -5.30353        -2.18897
   C       -1.21964        -3.97497        -2.27283
  Br        0.51160        -6.20406        -2.89836
   C       -4.98036        -1.03799        -0.51530
   O       -4.63173         0.10266        -0.73369
   C       -6.17136        -1.50422         0.24075
   C       -7.05865        -0.67230         0.86314
   C       -7.23571         0.69747         0.54009
   C       -7.58301         1.63859         1.54095
   C       -7.62303         3.04752         1.27037
   N       -7.89629         3.90668         2.25339
   C       -8.13328         3.44740         3.46552
   C       -8.08804         2.04599         3.73479
   N       -7.81011         1.18576         2.78500
   C       -8.34067         1.57300         5.04857
   N       -8.54222         1.23697         6.12443
   C       -8.43162         4.36890         4.49814
   N       -8.67148         5.09672         5.35009
   C       -7.34243         3.58451        -0.03464
   C       -7.17650         2.61604        -1.05850
   C       -7.12725         1.20419        -0.77385
   N       -7.02140         0.48025        -1.88567
   S       -6.94506         1.44903        -3.15436
   N       -7.06761         2.84997        -2.36182
   C       -7.22536         4.96932        -0.15980
   C       -6.87613         5.76852        -1.23559
   C       -6.67089         7.16345        -1.10289
   C       -6.24808         7.78387        -2.24394
   C       -6.13189         6.90097        -3.33177
   S       -6.56649         5.27129        -2.87571
   C       -5.71541         7.17379        -4.63246
   C       -5.19242         8.37012        -5.16221
   C       -4.81295         8.25803        -6.46859
   C       -5.04282         6.97948        -7.03658
   S       -5.78187         5.93219        -5.84875
   C       -4.61535         6.60036        -8.29194
   C       -4.78947         5.36411        -8.94311
   C       -3.93747         4.98965       -10.01620
   O       -3.04505         5.94105       -10.35484
   C       -2.27653         5.88851       -11.54173
   C       -3.99127         3.69411       -10.58984
   O       -3.03404         3.33238       -11.50850
   C       -2.07617         2.39182       -11.04601
   C       -4.95216         2.73827       -10.22964
   C       -5.89718         3.14567        -9.25550
   C       -5.80347         4.42551        -8.60925
   N       -6.83866         4.52828        -7.80625
   O       -7.53345         3.39916        -7.92945
   N       -6.97971         2.55026        -8.79951
   C       -5.02575         1.46575       -10.86876
   C       -5.58903         0.32338       -10.38735
   C       -6.01627        -0.04942        -9.05853
   C       -5.48143         0.40879        -7.87974
   C       -5.93525         0.06117        -6.59554
   N       -6.27950        -0.13129        -5.51639
   C       -4.37591         1.27950        -7.83574
   N       -3.45305         1.96088        -7.77271
   C       -6.96055        -1.14680        -9.19925
   C       -6.94795        -1.58973       -10.54722
   C       -6.01441        -0.75058       -11.32718
   O       -5.69245        -0.87231       -12.48577
   C       -7.72640        -2.63305       -10.98446
   C       -8.56126        -3.26007       -10.05200
   C       -8.56839        -2.80665        -8.71029
   C       -7.77349        -1.75775        -8.26432
   S       -9.67862        -3.71838        -7.73396
   C      -10.11206        -4.68392        -9.11976
   C       -9.45927        -4.34240       -10.25670
  Br      -11.38489        -6.04793        -8.93659
   H       -2.54070        -1.47292        -1.90723
   H       -4.74535        -5.52234         0.05325
   H       -0.57279        -3.27414        -2.76835
   H       -7.63931        -1.03236         1.70333
   H       -7.39215         5.50389         0.76894
   H       -6.82459         7.66318        -0.16272
   H       -6.03324         8.83463        -2.31949
   H       -5.08714         9.26373        -4.57397
   H       -4.37032         9.05329        -7.04201
   H       -4.00435         7.31986        -8.82107
   H       -2.87485         5.58245       -12.40031
   H       -1.42043         5.21953       -11.43771
   H       -1.91787         6.90827       -11.68577
   H       -1.46114         2.14904       -11.91000
   H       -2.54697         1.48496       -10.65976
   H       -1.45610         2.82816       -10.25617
   H       -4.67039         1.42486       -11.89415
   H       -7.69699        -2.95634       -12.01310
   H       -7.81321        -1.43614        -7.23640
   H       -9.60600        -4.83208       -11.20196
*
