# ORCA input file
# SCF done       -187.624463007719          0.000985111655
! CAM-B3LYP def2-SVP def2/J RIJCOSX Grid4 TightSCF
%maxcore 5000
%tddft
    Mode sTDDFT
    Ethresh 5.0
    maxcore 5000
end

%pal
  nprocs 6
  end
* xyz 0 1
   C       -6.24577        -1.05849         4.12424
   C       -7.34464        -1.86134         4.33226
   C       -7.50413        -2.71017         5.44236
   N       -7.68660        -3.41285         6.33328
   C       -8.42373        -1.96317         3.43354
   N       -9.31648        -2.11862         2.72673
   C       -5.04391        -1.02141         4.95333
   C       -4.09416        -0.17698         4.32909
   C       -2.85435         0.06432         4.86484
   C       -2.53354        -0.56268         6.07504
   C       -3.48798        -1.40432         6.68969
   C       -4.74564        -1.64655         6.14773
   S       -2.88753        -2.07090         8.17909
   C       -1.38196        -1.22068         7.95558
   C       -1.32893        -0.47630         6.82652
  Br       -0.02197        -1.39390         9.23714
   C       -4.67171         0.37252         3.07976
   O       -4.14980         1.18460         2.34228
   C       -6.03432        -0.18730         3.00344
   C       -6.99096         0.26077         2.11364
   C       -6.73977         0.98761         0.94798
   S       -7.85446         2.28268         0.58466
   C       -6.78312         2.96238        -0.58165
   C       -5.73426         2.06699        -0.89817
   C       -5.69679         0.94438        -0.00639
   C       -4.79450        -0.11500        -0.23030
   C       -4.84954        -1.41731         0.50280
   C       -3.88503         0.03711        -1.25745
   C       -3.93752         1.11198        -2.13852
   C       -4.89031         2.10369        -2.02720
   C       -5.05741         3.06197        -3.16574
   C       -7.00761         4.30916        -0.97045
   C       -5.97057         5.24914        -1.16189
   C       -6.24100         6.62222        -1.53244
   N       -5.23114         7.45407        -1.73150
   C       -3.98190         7.05391        -1.53430
   C       -3.73099         5.73179        -1.07105
   N       -4.70710         4.86903        -0.91726
   C       -2.39454         5.33940        -0.80649
   N       -1.28970         5.08654        -0.63726
   C       -2.90818         7.92978        -1.77568
   N       -1.97955         8.58146        -1.95533
   C       -7.57113         7.12569        -1.68997
   C       -8.60636         6.18750        -1.38133
   C       -8.32742         4.82955        -1.01214
   N       -9.43465         4.14093        -0.76101
   S      -10.71297         5.10782        -0.96599
   N       -9.90742         6.44258        -1.38994
   C       -7.93845         8.40230        -2.09245
   C       -7.20409         9.52349        -2.47238
   C       -7.82384        10.71700        -2.88824
   C       -6.95585        11.71812        -3.24687
   C       -5.61687        11.34046        -3.11819
   S       -5.47325         9.69756        -2.53253
   C       -4.46690        12.08859        -3.39129
   C       -4.36239        13.39899        -3.88315
   C       -3.06810        13.82163        -4.03765
   C       -2.09883        12.86600        -3.67142
   S       -2.89548        11.40301        -3.12520
   C       -0.72881        13.04810        -3.73249
   C        0.28566        12.15631        -3.37248
   C        1.67087        12.44338        -3.48683
   C        2.40090        11.33926        -3.03627
   C        3.76979        11.10090        -2.93952
   C        4.17567         9.87161        -2.43635
   C        5.45173         9.33132        -2.21985
   C        5.31568         8.03002        -1.68499
   C        3.95067         7.75001        -1.56245
   C        3.20850         8.86484        -2.01978
   C        1.85351         9.08860        -2.11235
   C        1.43828        10.32874        -2.62362
   C        0.16631        10.83467        -2.83323
   C        6.37153         7.11656        -1.31820
   C        7.67478         7.34746        -1.45383
   H       -2.15210         0.71451         4.36693
   H       -5.44303        -2.29091         6.65671
   H       -0.47850         0.11213         6.53382
   H       -8.03303         0.16801         2.39863
   H       -5.87708        -1.68770         0.73836
   H       -4.28822        -1.37156         1.43587
   H       -4.41032        -2.20171        -0.11041
   H       -3.15649        -0.74167        -1.43127
   H       -3.25764         1.13242        -2.97800
   H       -4.90056         2.53488        -4.10588
   H       -4.31996         3.86144        -3.11427
   H       -6.05027         3.50410        -3.17554
   H       -9.01325         8.54427        -2.13046
   H       -8.89540        10.81073        -2.91711
   H       -7.26437        12.69065        -3.58756
   H       -5.22611        13.99651        -4.11262
   H       -2.79081        14.79487        -4.40344
   H       -0.40486        14.01226        -4.10816
   H        2.08261        13.36296        -3.86168
   H        4.49098        11.84593        -3.24540
   H        6.37961         9.83139        -2.42766
   H        3.52777         6.83729        -1.18407
   H        1.12434         8.35164        -1.80897
   H       -0.74113        10.30559        -2.61654
   H        6.03468         6.17438        -0.90428
   H        8.05636         8.26792        -1.86180
   H        8.40846         6.61766        -1.15900
*
