# ORCA input file
# SCF done       -176.644186534635          0.000492552707
! CAM-B3LYP def2-SVP def2/J RIJCOSX Grid4 TightSCF
%maxcore 5000
%tddft
    Mode sTDDFT
    Ethresh 5.0
    maxcore 5000
end

%pal
  nprocs 6
  end
* xyz 0 1
   C       12.05995        -2.82240         4.35358
   C       10.99120        -2.47711         3.61697
   C       10.66836        -1.19000         3.08312
   C        9.51117        -1.15347         2.37472
   C        8.83421        -2.39247         2.29289
   S        9.72645        -3.62782         3.15521
   C        7.64132        -2.67292         1.64675
   C        6.82403        -1.79414         0.91596
   C        5.71172        -2.40318         0.40210
   C        5.60122        -3.77465         0.70170
   S        6.95448        -4.28771         1.67432
   C        4.55379        -4.56768         0.24229
   C        4.32051        -5.91188         0.43172
   S        2.93824        -6.67987        -0.32937
   C        3.31539        -8.28231         0.28772
   C        4.48217        -8.19774         1.09969
   C        5.02940        -6.89031         1.17469
   N        6.10811        -6.64380         1.91688
   C        6.65776        -7.64835         2.56581
   C        7.86930        -7.32387         3.39351
   N        9.04132        -8.00953         2.85582
   C        6.12373        -8.95776         2.47288
   C        6.75090       -10.09342         3.22381
   N        6.24271       -11.37647         2.78470
   N        5.04340        -9.21320         1.75978
   C        2.53169        -9.36040        -0.05134
   C        2.78763       -10.67758         0.34026
   C        2.02772       -11.78519         0.04581
   C        0.82548       -11.89484        -0.67394
   C        0.13590       -13.08669        -0.90618
   C       -1.02694       -12.94388        -1.64111
   C       -1.28868       -11.63067        -2.01319
   S       -0.04114       -10.57378        -1.41546
   C       -2.35238       -11.08805        -2.75749
   C       -3.46435       -11.72246        -3.30154
   C       -4.30187       -10.84913        -3.96476
   C       -3.86841        -9.51853        -3.96470
   S       -2.36348        -9.37734        -3.10310
   C       -4.57566        -8.47213        -4.57240
   C       -4.25868        -7.14095        -4.65984
   S       -5.35176        -6.02662        -5.47769
   C       -4.32346        -4.63022        -5.21271
   C       -3.15644        -5.03601        -4.51251
   C       -3.12111        -6.41775        -4.20085
   N       -2.09584        -6.93667        -3.53552
   C       -1.10051        -6.13979        -3.19310
   C        0.03305        -6.78913        -2.44739
   N        1.21758        -6.88900        -3.28931
   C       -1.13891        -4.76141        -3.50884
   C       -0.03607        -3.80360        -3.11993
   N       -0.38211        -2.40118        -3.22894
   N       -2.16183        -4.22284        -4.14973
   C       -4.61913        -3.35024        -5.62547
   C       -5.77209        -2.97557        -6.30382
   C       -6.03475        -1.68175        -6.69937
   C       -7.17983        -1.27165        -7.37502
   C       -7.48730         0.03065        -7.79758
   C       -8.69198         0.14526        -8.44068
   C       -9.39064        -1.07013        -8.55207
   S       -8.47190        -2.36666        -7.81850
   C      -10.62775        -1.28978        -9.13676
   C      -11.46750        -0.33262        -9.75513
   C      -12.63096        -0.83671       -10.23783
   C      -12.79257        -2.24320       -10.03239
   S      -11.36864        -2.87380        -9.18923
   C      -13.82836        -3.01840       -10.39293
   H       12.80585        -2.09196         4.61188
   H       12.20406        -3.82697         4.70597
   H       11.31389        -0.34647         3.25127
   H        9.11762        -0.26946         1.90473
   H        7.05952        -0.75377         0.77958
   H        4.96714        -1.89878        -0.18948
   H        3.82453        -4.04582        -0.36724
   H        7.71760        -7.68125         4.41769
   H        7.97403        -6.22951         3.41433
   H        9.85913        -7.76027         3.40191
   H        9.20699        -7.69658         1.90433
   H        6.58254        -9.89674         4.30144
   H        7.83238       -10.06048         3.05548
   H        5.23044       -11.34571         2.73440
   H        6.51759       -12.10719         3.43041
   H        1.67548        -9.14793        -0.67462
   H        3.68547       -10.83086         0.92166
   H        2.39382       -12.73402         0.42023
   H        0.49553       -14.03133        -0.53666
   H       -1.67300       -13.76079        -1.90845
   H       -3.64713       -12.77830        -3.20775
   H       -5.21588       -11.14621        -4.44940
   H       -5.50876        -8.76806        -5.03831
   H       -0.28560        -7.80263        -2.19978
   H        0.21102        -6.23893        -1.50669
   H        1.89435        -7.50336        -2.85136
   H        1.65898        -5.98282        -3.39952
   H        0.82598        -3.98237        -3.77307
   H        0.27581        -4.00522        -2.08968
   H       -1.17998        -2.20182        -2.63297
   H       -0.67958        -2.20846        -4.18051
   H       -3.87862        -2.59803        -5.38627
   H       -6.50142        -3.74381        -6.53103
   H       -5.30659        -0.91200        -6.47547
   H       -6.81751         0.85395        -7.61978
   H       -9.08196         1.06876        -8.82889
   H      -11.18412         0.70283        -9.82319
   H      -13.39042        -0.26135       -10.73656
   H      -14.67642        -2.59748       -10.90323
   H      -13.84411        -4.07239       -10.18568
*
