# ORCA input file
# SCF done       -202.244738931924          0.000523134541
! CAM-B3LYP def2-SVP def2/J RIJCOSX Grid4 TightSCF
%maxcore 5000
%tddft
    Mode sTDDFT
    Ethresh 5.0
    maxcore 5000
end

%pal
  nprocs 6
  end
* xyz 0 1
   C        7.85305        -0.88315        11.22487
   C        8.24508        -2.08387        11.67015
   C        9.08988        -2.37056        12.79528
   C        9.30927        -3.68527        13.00954
   C        8.66162        -4.54930        12.08031
   S        7.75810        -3.60616        10.90772
   C        8.68769        -5.91939        12.05810
   C        9.35678        -6.79531        12.95375
   C        9.16510        -8.10830        12.68555
   C        8.32918        -8.37750        11.55891
   S        7.82734        -6.84819        10.84297
   C        7.94970        -9.62647        11.17194
   C        7.09406       -10.04332        10.10154
   C        6.59901       -11.36219        10.13350
   C        5.73914       -11.79412         9.15891
   C        5.37416       -10.94456         8.09672
   C        5.88182        -9.65319         8.03350
   C        6.72370        -9.21212         9.03228
   C        4.45817       -11.65394         7.23457
   C        4.22950       -12.93145         7.78047
   C        5.05689       -13.13508         9.02709
   C        4.17796       -13.44991        10.25043
   C        3.13315       -12.37372        10.51821
   C        6.08331       -14.26659         8.82408
   C        7.00437       -14.02565         7.63392
   C        3.34539       -13.79488         7.18883
   C        2.69480       -13.42065         5.99905
   C        2.96084       -12.15842         5.44608
   C        3.82153       -11.27225         6.05938
   C        1.76426       -14.35195         5.42578
   C        1.29407       -14.35379         4.15464
   C        0.36450       -15.31446         3.69092
   C       -0.34543       -16.28290         4.41275
   C       -1.21278       -17.09123         3.58587
   N       -1.97521       -18.04463         4.13426
   C       -1.89022       -18.22325         5.43282
   C       -2.75870       -19.26423         6.02772
   O       -3.53831       -19.92889         5.37236
   C       -2.61767       -19.43278         7.48282
   C       -1.77413       -18.71721         8.23567
   C       -0.88313       -17.67731         7.69799
   O       -0.09589       -17.07119         8.40177
   C       -1.00798       -17.44102         6.24504
   N       -0.26530       -16.48562         5.72861
   C       -1.14311       -16.76990         2.22775
   S       -0.04199       -15.44255         2.01023
   C       -1.77565       -17.40953         1.11331
   C       -1.37153       -17.09935        -0.19788
   C       -1.91303       -17.78862        -1.25027
   C       -2.89468       -18.77392        -1.03192
   C       -3.33205       -19.05441         0.25695
   C       -2.76893       -18.38212         1.31984
   C       -3.21277       -19.38981        -2.29764
   C       -2.40856       -18.80776        -3.29727
   C       -1.61243       -17.65517        -2.72785
   C       -0.11280       -17.75639        -3.03492
   C        0.50396       -19.04145        -2.49483
   C       -2.19861       -16.29653        -3.18271
   C       -2.18189       -16.04288        -4.68421
   C       -2.39634       -19.32553        -4.56756
   C       -3.23556       -20.40727        -4.88740
   C       -4.10321       -20.90706        -3.90313
   C       -4.08237       -20.42667        -2.61158
   C       -3.20856       -21.03812        -6.17929
   C       -2.18297       -20.97038        -7.06424
   C       -2.15706       -21.65594        -8.29634
   C       -1.06727       -21.70212        -9.12095
   C       -0.95446       -22.38892       -10.35927
   C        0.26739       -22.29895       -10.94355
   C        1.20709       -21.53414       -10.20527
   S        0.46293       -20.91593        -8.74317
   C        2.52254       -21.28894       -10.51250
   C        3.24616       -21.74530       -11.65003
   C        4.54152       -21.36299       -11.67804
   C        4.95048       -20.56670       -10.55616
   S        3.56814       -20.33729        -9.47349
   C        6.16451       -20.05554       -10.31197
   H        8.17146         0.01697        11.72037
   H        7.21357        -0.77897        10.36774
   H        9.49280        -1.57300        13.39415
   H        9.91477        -4.07725        13.80766
   H        9.94982        -6.42386        13.77027
   H        9.58815        -8.91351        13.26079
   H        8.31739       -10.42917        11.80161
   H        6.88457       -12.01394        10.94730
   H        5.61813        -8.99769         7.21699
   H        7.12254        -8.21202         8.97681
   H        4.82170       -13.55719        11.12629
   H        3.67716       -14.40560        10.08456
   H        3.60827       -11.41299        10.70554
   H        2.53796       -12.64029        11.38837
   H        2.46626       -12.26755         9.66570
   H        5.54310       -15.20442         8.68003
   H        6.68293       -14.36106         9.73203
   H        6.43031       -13.94799         6.71319
   H        7.70726       -14.84950         7.53239
   H        7.56914       -13.10497         7.76441
   H        3.14017       -14.76567         7.61553
   H        2.45370       -11.86267         4.54008
   H        3.99480       -10.29458         5.63443
   H        1.42629       -15.14256         6.08206
   H        1.64181       -13.63512         3.42436
   H       -3.25296       -20.19192         7.91929
   H       -1.70074       -18.87752         9.30309
   H       -0.61082       -16.34712        -0.35440
   H       -4.08915       -19.80368         0.43080
   H       -3.07284       -18.60715         2.32903
   H        0.39631       -16.89504        -2.59702
   H        0.03536       -17.71897        -4.11475
   H        0.39962       -19.09486        -1.41340
   H        1.56228       -19.08199        -2.74209
   H        0.01558       -19.91127        -2.92876
   H       -1.63837       -15.50631        -2.67744
   H       -3.23249       -16.24417        -2.83071
   H       -1.17023       -16.06819        -5.08032
   H       -2.59844       -15.05851        -4.88772
   H       -2.78490       -16.77991        -5.20783
   H       -1.74835       -18.91378        -5.32516
   H       -4.76751       -21.71972        -4.16111
   H       -4.72075       -20.85682        -1.85445
   H       -4.05450       -21.67098        -6.41939
   H       -1.29561       -20.40100        -6.82031
   H       -3.04128       -22.20013        -8.60210
   H       -1.78765       -22.93217       -10.76999
   H        0.52664       -22.76206       -11.87885
   H        2.77500       -22.34553       -12.40827
   H        5.24132       -21.61425       -12.45530
   H        6.97746       -20.22066       -10.99672
   H        6.36563       -19.47073        -9.43332
*
