# ORCA input file
# SCF done       -215.165265604171          0.000362116961
! CAM-B3LYP def2-SVP def2/J RIJCOSX Grid4 TightSCF
%maxcore 5000
%tddft
    Mode sTDDFT
    Ethresh 5.0
    maxcore 5000
end

%pal
  nprocs 6
  end
* xyz 0 1
   C        3.54351       -14.79111        -6.41944
   C        4.32564       -13.65596        -6.58132
   C        4.78847       -12.87932        -5.45007
   N        5.42697       -11.72057        -5.65554
   C        5.68625       -11.34033        -6.88486
   C        5.32036       -12.16346        -8.00383
   N        4.65157       -13.27170        -7.83626
   C        5.68819       -11.75897        -9.31286
   N        6.00684       -11.39366       -10.35060
   C        6.35190       -10.10870        -7.08778
   N        6.90821        -9.12259        -7.26822
   C        4.51818       -13.28104        -4.11964
   C        3.67956       -14.40522        -3.98008
   C        3.20466       -15.15771        -5.12245
   N        2.44593       -16.19512        -4.74744
   S        2.34944       -16.21656        -3.14793
   N        3.25432       -14.93153        -2.82994
   C        4.97213       -12.56170        -2.96950
   S        3.86014       -12.43389        -1.63658
   C        4.93754       -11.37611        -0.78131
   C        6.11831       -11.18199        -1.49348
   C        6.16039       -11.88763        -2.70767
   C        7.41695       -12.00759        -3.52778
   C        7.71807       -13.46772        -3.87871
   C        8.60653       -11.42009        -2.76389
   C        8.24050       -10.07628        -2.15656
   C        7.22591       -10.27883        -1.02297
   C        6.71671        -8.92942        -0.59931
   C        7.16161        -8.26533         0.45151
   C        4.58910       -10.84013         0.48538
   C        3.44562       -11.14430         1.14216
   C        3.01455       -10.62203         2.40643
   C        1.86538       -11.13306         2.97683
   C        1.39683       -10.63418         4.20425
   C        0.27942       -10.97086         4.95890
   C       -0.72008       -12.02925         4.63425
   C       -0.95772       -12.99430         5.81064
   N       -1.23293       -14.32315         5.29688
   C       -2.03690       -11.39948         4.14291
   N       -1.82215       -10.79857         2.84037
   C        0.27298       -10.09458         6.10453
   C       -0.60699        -9.93639         7.11190
   C       -0.36171        -8.97631         8.22686
   C        0.84467        -8.11324         8.05333
   C        1.69559        -8.25140         7.02007
   C        1.46065        -9.22698         6.02113
   C        2.13008        -9.56109         4.86257
   C        3.30824        -9.05849         4.26016
   C        3.73104        -9.57416         3.07987
   C       -0.20445        -9.84508         9.45481
   C       -1.17317       -10.01261        10.35844
   C       -1.13643       -10.81861        11.54789
   S       -2.25830       -10.36320        12.79138
   C       -1.64921       -11.58220        13.87512
   C       -0.59267       -12.27303        13.28713
   C       -0.35021       -11.88871        11.95119
   C        0.57641       -12.65379        11.04108
   C       -0.15760       -13.12684         9.78143
   C        1.15535       -13.87824        11.75688
   C        1.54428       -13.53794        13.18451
   C        0.28173       -13.25624        14.01307
   C        0.72577       -12.77644        15.37271
   C        0.97537       -11.51928        15.68547
   C       -2.31983       -11.70346        15.11717
   C       -2.20862       -12.72760        16.00078
   C       -2.91090       -12.82496        17.23246
   C       -2.70079       -13.96916        18.04865
   C       -3.39189       -14.15295        19.30382
   N       -3.17356       -15.26797        20.03887
   C       -2.32478       -16.15509        19.59712
   C       -1.62055       -15.96184        18.35891
   N       -1.82653       -14.89308        17.62613
   C       -0.68623       -16.92443        17.90883
   N        0.06947       -17.71146        17.55691
   C       -2.08961       -17.33441        20.35042
   N       -1.86907       -18.30193        20.92227
   C       -4.28898       -13.20720        19.78065
   C       -4.49905       -12.07161        19.00672
   C       -3.82051       -11.87060        17.74049
   N       -4.17878       -10.71506        17.17549
   S       -5.24160        -9.97185        18.12220
   N       -5.31832       -11.05340        19.29820
   H        3.20756       -15.35069        -7.27505
   H        7.28619       -11.43803        -4.45318
   H        7.75616       -14.07271        -2.97460
   H        8.68255       -13.53216        -4.37798
   H        6.96564       -13.89088        -4.53787
   H        9.44855       -11.30831        -3.44870
   H        8.90773       -12.10760        -1.96931
   H        7.80509        -9.43535        -2.92625
   H        9.12495        -9.57544        -1.75994
   H        7.73722       -10.75236        -0.17476
   H        5.97718        -8.49025        -1.25558
   H        7.90227        -8.68248         1.11549
   H        6.80551        -7.27902         0.69579
   H        5.30779       -10.15857         0.91394
   H        2.77438       -11.85975         0.68109
   H        1.31613       -11.91443         2.47263
   H       -0.32702       -12.63033         3.81013
   H       -1.76199       -12.60564         6.45860
   H       -0.04638       -13.06062         6.41179
   H       -2.07808       -14.32091         4.73615
   H       -1.36203       -14.98261         6.05573
   H       -2.40249       -10.68593         4.90246
   H       -2.79310       -12.18104         4.02075
   H       -1.10702       -10.08089         2.90058
   H       -2.67307       -10.36868         2.49619
   H       -1.50706       -10.52910         7.19100
   H       -1.25148        -8.34756         8.36405
   H        1.01293        -7.37923         8.82658
   H        2.56228        -7.61239         6.93111
   H        3.85575        -8.26384         4.74586
   H        4.62255        -9.18161         2.61643
   H        0.74794       -10.34408         9.53194
   H       -2.08789        -9.44043        10.24950
   H        1.40762       -12.00072        10.75063
   H       -1.01121       -13.74108        10.06053
   H        0.51431       -13.72766         9.17252
   H       -0.51453       -12.29621         9.18125
   H        2.02178       -14.23994        11.20094
   H        0.41068       -14.67744        11.77096
   H        2.18639       -12.65427        13.19426
   H        2.09535       -14.36140        13.64045
   H       -0.26462       -14.20105        14.12726
   H        0.91838       -13.56179        16.09105
   H        0.81276       -10.71112        14.99122
   H        1.34432       -11.24159        16.65749
   H       -3.02321       -10.91267        15.34368
   H       -1.56547       -13.56689        15.79638
   H       -4.79954       -13.35729        20.71609
*
