# ORCA input file
# SCF done       -216.633056413436          0.000310727653
! CAM-B3LYP def2-SVP def2/J RIJCOSX Grid4 TightSCF
%maxcore 5000
%tddft
    Mode sTDDFT
    Ethresh 5.0
    maxcore 5000
end

%pal
  nprocs 6
  end
* xyz 0 1
   C       12.57756         9.88920        10.99125
   C       12.80016        10.09292        12.45141
   O       12.42501        11.04306        13.10361
   C       13.50864         8.88273        12.90721
   C       13.82007         8.08479        11.80575
   C       13.37832         8.75186        10.58569
   C       13.81151         8.47711         9.31695
   C       13.57314         9.30868         8.20181
   N       13.48207         9.96624         7.26583
   C       14.63063         7.38073         8.97733
   N       15.27266         6.49249         8.63488
   C       14.47843         6.85949        11.97680
   C       14.81184         6.46206        13.24491
   C       14.51803         7.24960        14.37976
   C       13.84674         8.49650        14.21886
   C       13.55060         9.27681        15.35508
   C       13.90724         8.83973        16.60081
   C       14.57071         7.61308        16.76488
   C       14.86967         6.83508        15.68038
   C       11.68040        10.65729        10.33142
   C       11.06985        10.46831         9.03804
   C       10.58565         9.23764         8.56103
   C       10.59040         7.97705         9.37316
   C       10.01331         9.20982         7.30431
   C        9.88347        10.33578         6.48580
   C       10.37806        11.56408         6.96339
   C       10.92211        11.60222         8.23103
   C       10.38662        12.81745         6.14240
   C        9.23519        10.13655         5.20590
   C        8.43353        11.00594         4.56031
   C        7.74857        10.76387         3.32315
   C        7.91253         9.69493         2.51595
   C        7.20277         9.42557         1.28989
   C        6.31987        10.30973         0.71420
   C        5.62420         9.96216        -0.46118
   C        4.68156        10.66219        -1.20115
   C        4.25045        12.06669        -0.93100
   C        5.09575        13.06927        -1.74481
   N        5.00693        12.79888        -3.17274
   C        2.75716        12.33871        -1.16098
   N        2.35678        13.49420        -0.37129
   C        4.28675         9.80100        -2.29074
   C        3.40020         9.96326        -3.29184
   C        3.13572         8.89343        -4.28845
   C        3.99882         7.67625        -4.14821
   C        4.88231         7.52797        -3.14562
   C        5.05198         8.54835        -2.17926
   C        5.85517         8.65613        -1.06428
   C        6.78720         7.77379        -0.46802
   C        7.43266         8.15284         0.66125
   C        3.15736         9.38446        -5.71456
   C        3.60263        10.57520        -6.10739
   C        3.59788        11.03871        -7.48870
   C        4.53896        11.98395        -7.93255
   C        5.58702        12.52543        -7.00721
   C        4.49036        12.40252        -9.24641
   C        3.53263        11.93554       -10.15524
   C        2.58103        10.99719        -9.70529
   C        2.64059        10.57499        -8.39109
   C        1.53392        10.43938       -10.61713
   C        3.48927        12.41797       -11.51095
   C        4.51481        12.97849       -12.19610
   C        4.40969        13.43472       -13.53963
   C        3.24320        13.74639       -14.17001
   C        3.19077        14.10048       -15.53097
   C        2.09602        14.36784       -16.30332
   C        2.30380        15.01292       -17.62677
   O        3.36510        15.12230       -18.20507
   C        0.97830        15.51013       -18.03665
   C        0.02908        15.10892       -17.09797
   C        0.67267        14.27439       -16.08052
   C       -0.00415        13.43648       -15.22975
   C        0.56396        12.45656       -14.39309
   N        0.91869        11.61215       -13.69836
   C       -1.41059        13.36878       -15.13122
   N       -2.54326        13.25972       -14.97562
   C       -1.30865        15.50411       -17.23077
   C       -1.66631        16.27667       -18.30500
   C       -0.73250        16.68012       -19.28366
   C        0.63302        16.29398       -19.15395
   C        1.56565        16.70343       -20.12898
   C        1.16016        17.46281       -21.19129
   C       -0.18453        17.84549       -21.32434
   C       -1.11029        17.46436       -20.39261
   H       14.70911         6.23406        11.12980
   H       15.31516         5.51769        13.39466
   H       13.04068        10.21711        15.21675
   H       13.67972         9.43758        17.47076
   H       14.84323         7.28749        17.75797
   H       15.38017         5.89077        15.80380
   H       11.35169        11.53765        10.87796
   H       10.69364         8.17985        10.43665
   H       11.40848         7.32337         9.06593
   H        9.66143         7.43245         9.21294
   H        9.62497         8.26801         6.94052
   H       11.30830        12.54086         8.60358
   H        9.47210        13.39072         6.29727
   H       10.47631        12.58640         5.08398
   H       11.22466        13.44539         6.43699
   H        9.36376         9.14353         4.79481
   H        8.21914        11.96014         5.01893
   H        7.03886        11.53027         3.04178
   H        8.62954         8.93595         2.80100
   H        6.14662        11.27851         1.15777
   H        4.45440        12.27880         0.12467
   H        6.13219        13.03383        -1.37006
   H        4.69279        14.06826        -1.56358
   H        5.46344        11.91429        -3.37648
   H        5.49749        13.52463        -3.68480
   H        2.17854        11.42959        -0.92428
   H        2.59729        12.59717        -2.20881
   H        2.40423        13.27788         0.61950
   H        1.40020        13.75430        -0.58421
   H        2.82803        10.87040        -3.40394
   H        2.09460         8.56593        -4.10691
   H        3.86527         6.90948        -4.89639
   H        5.47927         6.63039        -3.06717
   H        6.97038         6.80835        -0.91743
   H        8.14343         7.48500         1.12764
   H        2.80799         8.66012        -6.43796
   H        4.00080        11.26260        -5.37432
   H        6.17230        11.71585        -6.57334
   H        5.12472        13.08211        -6.19215
   H        6.25958        13.19248        -7.54096
   H        5.20384        13.14147        -9.58102
   H        1.89897         9.87188        -8.04097
   H        0.86328        11.22199       -10.97015
   H        0.93920         9.69088       -10.09960
   H        1.98452         9.97918       -11.49412
   H        2.55799        12.26150       -12.03648
   H        5.49982        13.02473       -11.75101
   H        5.33420        13.53018       -14.09657
   H        2.32553        13.74098       -13.60433
   H        4.14021        14.23418       -16.04117
   H       -2.04625        15.22154       -16.49788
   H       -2.69339        16.59342       -18.41655
   H        2.59549        16.40372       -20.01526
   H        1.87435        17.77507       -21.93865
   H       -0.48236        18.44599       -22.17131
   H       -2.14558        17.75737       -20.49258
*
