# ORCA input file
# SCF done       -213.457929833394          0.000875184970
! CAM-B3LYP def2-SVP def2/J RIJCOSX Grid4 TightSCF
%maxcore 5000
%tddft
    Mode sTDDFT
    Ethresh 5.0
    maxcore 5000
end

%pal
  nprocs 6
  end
* xyz 0 1
   C        4.68852         2.73783         3.91988
   C        3.41019         3.19846         4.07098
   F        2.63646         3.37082         2.98756
   C        2.86357         3.49819         5.32701
   C        3.63304         3.32595         6.44367
   C        4.95932         2.85783         6.34595
   C        5.49582         2.55661         5.05898
   C        6.82374         2.09228         4.93537
   C        7.59196         1.94957         6.06058
   C        7.05178         2.25194         7.34474
   C        5.76688         2.69013         7.49257
   C        8.09250         2.06085         8.37121
   O        7.99328         2.16514         9.56984
   C        9.35065         1.81111         7.60095
   C        8.97633         1.53259         6.22265
   C        9.70782         0.83275         5.29882
   C       10.99031         0.32156         5.55020
   N       12.05600        -0.08977         5.67029
   C        9.30888         0.59836         3.96712
   N        9.08355         0.42895         2.85446
   C       10.54072         2.05545         8.20177
   C       11.83045         2.26120         7.62353
   C       13.00723         1.85503         8.18010
   C       14.07053         2.06532         7.21966
   C       15.41611         1.74296         7.42849
   N       16.51379         1.43461         7.56456
   C       13.53928         2.57623         6.06502
   C       12.13009         2.75432         6.26228
   C       11.22600         3.30653         5.38868
   C       11.25472         3.23052         3.91229
   C       10.11427         3.83736         3.45461
   C        9.36909         4.34007         4.58193
   C       10.01572         3.99056         5.74199
   C        8.13743         5.00512         4.50186
   N        7.11009         5.51353         4.44843
   C       12.20242         2.46255         3.17759
   C       12.25765         2.37188         1.82876
   C       13.25511         1.60929         1.13868
   C       13.31156         1.53548        -0.22467
   C       14.34701         0.80421        -0.87415
   C       14.43074         0.70545        -2.25515
   C       15.46320        -0.01226        -2.87896
   N       16.31491        -0.60119        -3.37639
   C       13.49619         1.32633        -3.09890
   N       12.72992         1.84095        -3.78253
   C       15.30641         0.18783        -0.00778
   C       15.18069         0.29339         1.33835
   O       14.16981         0.98335         1.92419
   C       16.14844        -0.26924         2.26386
   C       17.49508        -0.20349         2.10567
   C       18.12699        -0.74335         3.29900
   C       19.51426        -0.87111         3.46316
   N       20.65017        -0.97169         3.58559
   C       17.16010        -1.09601         4.19471
   C       15.87385        -0.87474         3.57975
   C       14.67031        -1.35300         4.02147
   C       14.32983        -1.84114         5.38026
   C       13.09238        -2.42169         5.29837
   C       12.61083        -2.31095         3.93893
   C       13.53134        -1.63260         3.18897
   C       11.36771        -2.79929         3.50992
   N       10.34201        -3.19585         3.18438
   C       15.05017        -1.54777         6.56721
   C       14.71824        -2.01630         7.80175
   C       15.44682        -1.67185         8.96017
   C       15.17375        -2.06112        10.23971
   C       16.24219        -2.01070        11.27876
   O       17.27314        -1.38360        11.22691
   C       15.78933        -2.93554        12.33632
   C       16.45378        -3.35279        13.45324
   C       15.83304        -4.28153        14.31837
   C       14.53042        -4.76788        14.00281
   C       13.92198        -5.70164        14.86367
   C       14.58962        -6.11747        15.98221
   C       15.86911        -5.64888        16.31137
   C       16.47519        -4.74343        15.48558
   F       14.01034        -7.00824        16.80530
   C       13.86162        -4.31206        12.84277
   C       14.47917        -3.40412        12.02590
   C       14.02969        -2.73918        10.80578
   C       12.72263        -2.60672        10.41014
   C       12.28154        -1.69185         9.43289
   N       11.85335        -0.91140         8.70689
   C       11.64581        -3.27427        11.03039
   N       10.73879        -3.81412        11.48093
   H        5.07735         2.51662         2.93845
   H        1.84928         3.86023         5.38417
   H        3.23346         3.55210         7.42065
   H        7.21156         1.88050         3.95106
   H        5.37291         2.91333         8.47271
   H       10.49649         2.13155         9.28454
   H       13.13678         1.38590         9.13635
   H       14.09806         2.92357         5.21665
   H        9.78273         3.91440         2.43704
   H        9.73898         4.28840         6.73539
   H       12.91446         1.88920         3.75363
   H       11.55779         2.90057         1.20149
   H       12.56539         2.03930        -0.81782
   H       16.12025        -0.37819        -0.43042
   H       18.03383         0.20645         1.27206
   H       17.32801        -1.57829         5.13714
   H       12.51525        -2.84857         6.09566
   H       13.46135        -1.44839         2.13451
   H       15.87316        -0.85085         6.49634
   H       13.89784        -2.71164         7.90094
   H       16.36628        -1.11118         8.82630
   H       17.44259        -2.97980        13.67410
   H       12.93642        -6.08114        14.64344
   H       16.34664        -6.01272        17.20723
   H       17.46050        -4.36859        15.71806
   H       12.88026        -4.70252        12.62388
*
