# ORCA input file
# SCF done       -215.250210323544          0.000984156950
! CAM-B3LYP def2-SVP def2/J RIJCOSX Grid4 TightSCF
%maxcore 5000
%tddft
    Mode sTDDFT
    Ethresh 5.0
    maxcore 5000
end

%pal
  nprocs 6
  end
* xyz 0 1
   C       -8.93972       -14.01977         7.75173
   C       -7.70809       -14.65712         7.80532
   C       -6.56621       -14.05424         7.29899
   C       -6.62043       -12.79049         6.72872
   C       -7.84439       -12.14814         6.66562
   C       -9.01115       -12.76271         7.17454
   C      -10.14362       -11.86681         6.96629
   C      -11.41575       -12.04844         7.45039
   C      -11.82211       -13.16219         8.21227
   N      -12.22087       -14.04327         8.83147
   C      -12.46744       -11.12374         7.30343
   N      -13.35163       -10.39236         7.22847
   C       -9.65427       -10.75403         6.17367
   C       -8.20506       -10.82920         6.17028
   C       -7.35231        -9.76281         6.02545
   C       -7.82032        -8.43953         5.91052
   N       -8.19720        -7.35436         5.88650
   C       -5.94992        -9.85772         6.08578
   N       -4.80205        -9.88373         6.10836
   C      -10.45277        -9.86828         5.48921
   C      -10.10543        -9.09400         4.36836
   S       -8.80683        -9.56415         3.29821
   C       -9.20702        -8.33153         2.14532
   C      -10.28061        -7.56010         2.59173
   C      -10.79362        -7.99266         3.83980
   O      -11.82675        -7.34112         4.41214
   C      -11.98388        -7.31274         5.82169
   O      -10.72221        -6.54002         1.81956
   C      -11.56114        -5.54623         2.37685
   C       -8.40696        -8.22753         0.98047
   C       -8.55556        -7.30553        -0.00116
   C       -7.71339        -7.16248        -1.15593
   C       -6.78601        -8.10999        -1.53728
   C       -5.95723        -7.89283        -2.65400
   C       -4.95254        -8.66513        -3.22462
   C       -4.46417       -10.01595        -2.82569
   C       -3.68896        -9.95689        -1.49464
   N       -2.40490        -9.30626        -1.70226
   C       -5.59439       -11.05696        -2.74391
   N       -5.02032       -12.39115        -2.66813
   C       -4.38642        -7.88154        -4.29593
   C       -3.34494        -8.11919        -5.11291
   C       -2.88835        -7.11336        -6.11550
   C       -3.71084        -5.86294        -6.16133
   C       -4.75876        -5.64668        -5.34592
   C       -5.12440        -6.61277        -4.37822
   C       -6.07814        -6.63422        -3.38438
   C       -7.06370        -5.69452        -2.99754
   C       -7.85550        -5.96034        -1.93157
   C       -2.86579        -7.73312        -7.48642
   C       -1.74812        -8.01066        -8.16329
   C       -1.72059        -8.51229        -9.50774
   S       -3.14498        -8.47515       -10.49237
   C       -2.27638        -9.03377       -11.89402
   C       -0.93608        -9.28535       -11.57830
   C       -0.63394        -8.99953       -10.22021
   O        0.62187        -9.20241        -9.72053
   C        0.75531        -9.82437        -8.45497
   O       -0.10459        -9.74628       -12.52910
   C        1.29675        -9.69013       -12.33418
   C       -2.94419        -9.10309       -13.13043
   C       -2.37562        -9.48824       -14.31067
   C       -3.07059        -9.43930       -15.52857
   C       -2.51825        -9.64430       -16.77097
   C       -3.26424        -9.97980       -17.97268
   C       -4.60684        -9.81037       -18.19199
   C       -5.51187        -9.22159       -17.28486
   N       -6.30425        -8.74763       -16.60150
   C       -5.26666       -10.16942       -19.38546
   N       -5.86744       -10.44033       -20.32570
   C       -2.30769       -10.54266       -18.91850
   C       -1.00905       -10.43943       -18.37016
   C        0.08907       -10.91948       -19.06377
   C       -0.11418       -11.50455       -20.30490
   C       -1.38689       -11.59959       -20.84809
   C       -2.49434       -11.11956       -20.16429
   C       -1.10567        -9.75007       -17.09115
   C       -0.06722        -9.13124       -16.44130
   C        1.29019        -9.30811       -16.77532
   N        2.41610        -9.44765       -16.95558
   C       -0.21150        -8.15684       -15.43028
   N       -0.24982        -7.30297       -14.66359
   H       -9.81601       -14.50440         8.15004
   H       -7.64189       -15.63938         8.24793
   H       -5.62101       -14.57321         7.34811
   H       -5.72898       -12.32971         6.33439
   H      -11.49714        -9.84348         5.75964
   H      -12.39122        -6.32714         6.05204
   H      -11.02651        -7.43980         6.33039
   H      -12.69369        -8.07211         6.15817
   H      -12.54297        -5.94619         2.63498
   H      -11.66486        -4.79507         1.59454
   H      -11.10666        -5.09221         3.26002
   H       -7.60443        -8.95165         0.92980
   H       -9.34908        -6.58063         0.10044
   H       -6.68850        -9.02485        -0.97568
   H       -3.76199       -10.36636        -3.59029
   H       -3.60327       -10.98565        -1.11267
   H       -4.25100        -9.36108        -0.77276
   H       -1.78516        -9.91743        -2.22439
   H       -1.96228        -9.10732        -0.81253
   H       -6.26577       -10.91703        -3.60776
   H       -6.18054       -10.90562        -1.83648
   H       -4.55954       -12.62723        -3.54119
   H       -5.74550       -13.08083        -2.50652
   H       -2.77798        -9.03888        -5.07135
   H       -1.85393        -6.84325        -5.85243
   H       -3.41488        -5.13609        -6.90218
   H       -5.32189        -4.72676        -5.40730
   H       -7.17032        -4.77634        -3.55631
   H       -8.61030        -5.25204        -1.62228
   H       -3.83348        -7.93155        -7.92585
   H       -0.78492        -7.81038        -7.71462
   H       -0.17971       -10.28156        -8.12705
   H        1.09256        -9.10104        -7.70854
   H        1.51955       -10.59809        -8.55921
   H        1.73273        -9.85562       -13.31917
   H        1.63412       -10.47156       -11.65011
   H        1.60614        -8.71540       -11.95673
   H       -3.97013        -8.75575       -13.13239
   H       -1.36100        -9.84959       -14.29601
   H       -4.14027        -9.29252       -15.46735
   H        1.08293       -10.85419       -18.65131
   H        0.73181       -11.89006       -20.85326
   H       -1.52181       -12.05557       -21.81703
   H       -3.47559       -11.20322       -20.60155
*
