# ORCA input file
# SCF done       -237.318202982360          0.000638003711
! CAM-B3LYP def2-SVP def2/J RIJCOSX Grid4 TightSCF
%maxcore 5000
%tddft
    Mode sTDDFT
    Ethresh 5.0
    maxcore 5000
end

%pal
  nprocs 6
  end
* xyz 0 1
   C       -9.25619        -5.65345        -6.10790
   C      -10.09593        -4.56784        -5.91031
   C       -9.72589        -3.51708        -5.08280
   C       -8.49765        -3.51608        -4.43971
   C       -7.64743        -4.59216        -4.63488
   C       -8.02870        -5.67219        -5.46326
   C       -6.97668        -6.68035        -5.44320
   C       -6.97894        -7.85577        -6.14325
   C       -7.98274        -8.22086        -7.06674
   N       -8.75535        -8.57889        -7.83659
   C       -6.01195        -8.88241        -6.06241
   N       -5.31113        -9.79151        -6.04501
   C       -5.97113        -6.22091        -4.49009
   C       -6.30361        -4.84432        -4.14020
   C       -5.43257        -3.88647        -3.69457
   C       -4.04428        -4.07547        -3.52601
   N       -2.90316        -4.14577        -3.42251
   C       -5.79981        -2.54787        -3.44359
   N       -6.04090        -1.45071        -3.20745
   C       -4.96110        -6.98952        -3.99194
   C       -4.21761        -6.76711        -2.80509
   S       -4.90658        -6.04078        -1.37650
   C       -2.91871        -7.18243        -2.56151
   C       -2.07406        -7.75961        -3.62589
   O       -2.43798        -7.85544        -4.78476
   C       -0.77457        -8.16869        -3.12849
   C        0.28061        -8.75404        -3.79445
   N        1.28810        -8.95582        -2.91396
   C        2.58907        -9.47799        -3.24829
   C        3.52770        -8.36073        -3.69963
   C        0.91663        -8.50912        -1.69030
   C       -0.36497        -8.01044        -1.77230
   C       -1.19075        -7.43297        -0.72157
   O       -0.87397        -7.42459         0.45428
   C       -2.47904        -6.91924        -1.23706
   C       -3.44175        -6.28100        -0.47270
   C       -3.37447        -5.77193         0.87731
   C       -4.47624        -5.85304         1.69497
   C       -4.42135        -5.34804         3.00942
   C       -5.36978        -5.29797         4.02194
   C       -6.76918        -5.81459         4.02264
   C       -7.63479        -5.11116         2.95933
   N       -9.02751        -5.18041         3.35681
   C       -6.78501        -7.34529         3.85595
   N       -8.12048        -7.87524         4.09154
   C       -4.75024        -4.61752         5.13521
   C       -5.23885        -4.25154         6.33484
   C       -4.41141        -3.50575         7.32048
   C       -2.99215        -3.27143         6.89567
   C       -2.52293        -3.63612         5.68817
   C       -3.36803        -4.28825         4.76010
   C       -3.18234        -4.72763         3.46467
   C       -2.07950        -4.63303         2.58558
   C       -2.17412        -5.13449         1.32926
   C       -4.41256        -4.20205         8.65465
   C       -4.50075        -3.54777         9.81581
   C       -4.47858        -4.16993        11.10325
   S       -4.57008        -5.89172        11.27920
   C       -4.42481        -3.53971        12.33694
   C       -4.35890        -2.07452        12.50640
   O       -4.29807        -1.27779        11.58481
   C       -4.38170        -1.67504        13.90376
   C       -4.42365        -0.41399        14.45550
   N       -4.42103        -0.53096        15.80526
   C       -4.40849         0.57404        16.73056
   C       -2.98137         1.04904        16.99673
   C       -4.35642        -1.83738        16.14640
   C       -4.33768        -2.59243        14.99160
   C       -4.30509        -4.03099        14.83452
   O       -4.15445        -4.80668        15.76885
   C       -4.47959        -4.45348        13.43055
   C       -4.60451        -5.77087        13.01277
   C       -4.73422        -6.99211        13.74222
   C       -5.40497        -7.20024        14.90258
   C       -5.21720        -8.36219        15.76983
   C       -4.76765        -9.59902        15.40184
   C       -4.46817        -9.98225        14.07644
   N       -4.22435       -10.35892        13.01989
   C       -4.59732       -10.67689        16.29720
   N       -4.43958       -11.59099        16.97262
   C       -5.61068        -7.94257        17.10654
   C       -6.19317        -6.65560        17.03299
   C       -6.63721        -6.01571        18.17833
   C       -6.49624        -6.66442        19.39532
   C       -5.93099        -7.93036        19.46908
   C       -5.48413        -8.58234        18.32986
   C       -6.23164        -6.24525        15.64153
   C       -7.04906        -5.29347        15.09875
   C       -7.78148        -4.36198        15.86140
   N       -8.35899        -3.55005        16.43175
   C       -7.26443        -5.13647        13.71397
   N       -7.52835        -5.00579        12.60411
   H       -9.56450        -6.46215        -6.74950
   H      -11.05452        -4.54547        -6.40579
   H      -10.40134        -2.68814        -4.93611
   H       -8.22287        -2.69831        -3.79352
   H       -4.69914        -7.89984        -4.51786
   H        0.35616        -9.03834        -4.82518
   H        2.47344       -10.21460        -4.04752
   H        2.99898        -9.97861        -2.36744
   H        3.12544        -7.85987        -4.57684
   H        4.50212        -8.77151        -3.94793
   H        3.64952        -7.62548        -2.90789
   H        1.56780        -8.56611        -0.84065
   H       -5.37879        -6.32056         1.32937
   H       -7.22896        -5.58324         4.98848
   H       -7.43579        -5.55913         1.97245
   H       -7.34924        -4.05465         2.90870
   H       -9.28964        -6.15840         3.44998
   H       -9.61988        -4.75199         2.65402
   H       -6.02602        -7.77342         4.53314
   H       -6.50119        -7.61047         2.83492
   H       -8.38816        -7.72196         5.05911
   H       -8.13490        -8.87564         3.92308
   H       -6.25472        -4.47099         6.63430
   H       -4.88148        -2.52028         7.46695
   H       -2.36501        -2.77592         7.62041
   H       -1.49882        -3.43249         5.41124
   H       -1.17673        -4.14188         2.91581
   H       -1.35548        -5.03417         0.63642
   H       -4.28403        -5.27632         8.62963
   H       -4.58988        -2.46963         9.83929
   H       -4.46945         0.53832        13.96570
   H       -4.87683         0.25019        17.66332
   H       -5.00082         1.38887        16.30628
   H       -2.38747         0.24459        17.42413
   H       -2.99176         1.88300        17.69249
   H       -2.51048         1.37213        16.07129
   H       -4.34519        -2.16203        17.16803
   H       -4.21301        -7.83190        13.29994
   H       -7.06943        -5.02934        18.13164
   H       -6.82940        -6.17578        20.29844
   H       -5.83208        -8.41547        20.42826
   H       -5.04102        -9.56191        18.40593
*
