# ORCA input file
# SCF done       -230.921281887775          0.000372439511
! CAM-B3LYP def2-SVP def2/J RIJCOSX Grid4 TightSCF
%maxcore 5000
%tddft
    Mode sTDDFT
    Ethresh 5.0
    maxcore 5000
end

%pal
  nprocs 6
  end
* xyz 0 1
   C       -3.76384         4.19876         6.40205
   C       -3.80302         3.56068         5.18739
   C       -4.97387         3.02851         4.61482
   N       -5.89704         2.58372         4.09511
   C       -2.66347         3.26644         4.41019
   N       -1.76708         2.93368         3.77377
   C       -4.86371         4.22403         7.36212
   C       -4.32415         4.46597         8.65892
   C       -5.11493         4.49369         9.77024
   C       -6.50718         4.29087         9.63112
   C       -7.05500         4.07179         8.33483
   C       -6.20946         4.03918         7.20147
   C       -8.44592         3.88143         8.20971
   C       -9.25805         3.89974         9.31070
   C       -8.71727         4.11227        10.58722
   C       -7.37134         4.30410        10.74344
   C       -2.86798         4.68213         8.54584
   O       -2.07149         4.86506         9.44096
   C       -2.58763         4.68853         7.08834
   C       -1.40814         5.19954         6.62944
   C       -1.11248         5.66113         5.33064
   S       -2.36281         6.17567         4.23401
   C       -1.21525         6.44552         2.96073
   C        0.07445         6.19661         3.39746
   C        0.13837         5.78493         4.73788
   C        1.40357         5.39520         5.42680
   C        2.65060         5.68188         4.58527
   O        2.98152         7.04662         4.72786
   C        4.29837         7.37807         4.36808
   C        2.36569         5.28742         3.12117
   O        1.97904         3.93380         3.16895
   C        1.59838         3.36404         1.94071
   C        1.30843         6.24587         2.55621
   C       -1.73021         6.73689         1.64538
   C       -2.98890         6.28098         1.32875
   C       -3.47159         6.38835         0.01378
   C       -4.64833         5.91200        -0.54451
   C       -5.73014         5.23743         0.23018
   C       -7.14951         5.52267        -0.28286
   N       -8.06437         5.56335         0.84487
   C       -5.47746         3.71429         0.32572
   N       -4.29155         3.45712         1.11654
   C       -4.56231         6.17852        -1.96091
   C       -5.35885         5.83892        -2.99089
   C       -5.03854         6.21918        -4.39775
   C       -3.75134         6.96172        -4.56789
   C       -2.94922         7.27259        -3.53301
   C       -3.29406         6.89206        -2.21503
   C       -2.63899         7.00595        -1.00658
   C       -1.39454         7.56439        -0.62514
   C       -0.95929         7.43407         0.65445
   C       -6.17367         7.06533        -4.91330
   C       -7.04749         6.65911        -5.83789
   C       -8.12549         7.44994        -6.35060
   S       -8.39215         9.08334        -5.82047
   C       -9.81928         9.23991        -6.82171
   C      -10.01822         8.08474        -7.55974
   C       -9.07445         7.08196        -7.28220
   C       -9.20352         5.81116        -8.04668
   C       -9.23297         6.15513        -9.54826
   O       -7.99507         6.66025       -10.01167
   C       -6.94764         5.72734       -10.08870
   C      -10.28749         7.24194        -9.88489
   O      -11.30761         6.74332       -10.72334
   C      -10.95461         6.65384       -12.08138
   C      -10.98834         7.84453        -8.65509
   C      -10.52399        10.46353        -6.82524
   C      -11.87293        10.60581        -6.99895
   C      -12.58068        11.85505        -7.19058
   C      -12.02277        13.04569        -7.58048
   C      -12.75704        14.23085        -7.78704
   N      -13.30136        15.22604        -7.96579
   C      -10.65431        13.23147        -7.86591
   N       -9.56002        13.44825        -8.13911
   C      -14.00270        11.59744        -7.00149
   C      -14.17848        10.20772        -6.74632
   C      -12.86693         9.53385        -6.74651
   O      -12.65484         8.36649        -6.49043
   C      -15.41175         9.66482        -6.53226
   C      -16.54933        10.50263        -6.56894
   C      -16.38144        11.89495        -6.81861
   C      -15.08987        12.42955        -7.03274
   C      -17.52282        12.72158        -6.84762
   C      -18.77100        12.19986        -6.64166
   C      -18.93513        10.82863        -6.39639
   C      -17.84786         9.99812        -6.36157
   H       -4.68583         4.66842        10.74576
   H       -6.64925         3.88010         6.22920
   H       -8.85705         3.71551         7.22462
   H      -10.32223         3.74989         9.20421
   H       -9.37214         4.12381        11.44586
   H       -6.94921         4.46922        11.72413
   H       -0.63040         5.32071         7.37710
   H        1.37211         4.32444         5.63729
   H        1.49488         5.93413         6.37299
   H        3.47889         5.05988         4.95944
   H        4.43909         8.41853         4.65565
   H        4.47251         7.27668         3.29084
   H        5.02347         6.75157         4.90135
   H        3.28217         5.38290         2.50999
   H        1.54005         2.29192         2.11747
   H        2.34071         3.56684         1.15845
   H        0.61594         3.71984         1.61430
   H        1.08183         5.99493         1.51925
   H        1.73706         7.25204         2.58473
   H       -3.58254         5.75886         2.06295
   H       -5.68834         5.62167         1.25384
   H       -7.43209         4.76828        -1.03871
   H       -7.17891         6.50797        -0.75733
   H       -8.04396         4.68430         1.35094
   H       -9.01501         5.72145         0.52984
   H       -5.43164         3.29428        -0.69507
   H       -6.32058         3.25472         0.84744
   H       -3.44964         3.66862         0.59356
   H       -4.24886         2.49062         1.41423
   H       -6.27567         5.28523        -2.85237
   H       -5.00540         5.29876        -4.99951
   H       -3.50546         7.25006        -5.57845
   H       -2.02328         7.80519        -3.69636
   H       -0.79956         8.09058        -1.35754
   H       -0.02934         7.88863         0.95607
   H       -6.24997         8.05333        -4.48159
   H       -6.96392         5.66252        -6.25319
   H      -10.15083         5.32913        -7.79344
   H       -8.39542         5.11188        -7.83752
   H       -9.48535         5.23700       -10.10514
   H       -6.15237         6.21194       -10.65217
   H       -7.26309         4.81711       -10.61371
   H       -6.56261         5.45309        -9.10037
   H       -9.73549         8.04295       -10.40134
   H      -11.83061         6.26781       -12.59893
   H      -10.10926         5.97607       -12.24294
   H      -10.69295         7.63883       -12.48572
   H      -11.75623         7.14142        -8.31913
   H      -11.49539         8.76224        -8.95312
   H       -9.92980        11.34747        -6.62516
   H      -15.51927         8.60762        -6.33992
   H      -14.99324        13.48895        -7.21058
   H      -17.39140        13.77671        -7.03791
   H      -19.63910        12.84143        -6.66661
   H      -19.92704        10.43356        -6.23492
   H      -17.96791         8.94118        -6.17300
*
