# ORCA input file
# SCF done       -235.018939723967          0.000484839683
! CAM-B3LYP def2-SVP def2/J RIJCOSX Grid4 TightSCF
%maxcore 5000
%tddft
    Mode sTDDFT
    Ethresh 5.0
    maxcore 5000
end

%pal
  nprocs 6
  end
* xyz 0 1
   C       -6.30026         9.96825         2.58275
   C       -5.80101        10.51086         1.42425
   C       -6.07363        10.02674         0.13388
   N       -6.20078         9.65413        -0.94649
   C       -4.99623        11.66902         1.38956
   N       -4.39348        12.64213         1.30245
   C       -7.39808         9.01035         2.65756
   C       -7.94168         9.05007         3.97512
   C       -9.01614         8.28766         4.32981
   C       -9.59897         7.42822         3.37018
   C       -9.05184         7.37424         2.05570
   C       -7.94274         8.18257         1.71379
   C       -9.63936         6.50870         1.11115
   C      -10.71718         5.73465         1.44551
   C      -11.25586         5.78926         2.73935
   C      -10.70873         6.61845         3.68090
   C       -7.15691         9.98956         4.80021
   O       -7.35134        10.31360         5.94747
   C       -6.01810        10.40609         3.93067
   C       -4.89257        10.93035         4.50237
   C       -3.59983        10.97437         3.94531
   O       -3.31465        10.33629         2.79758
   C       -2.00451        10.52055         2.50223
   C       -1.40768        11.27312         3.49682
   C       -2.41659        11.56884         4.43638
   C       -2.31503        12.32333         5.66190
   O       -3.21121        12.59447         6.42175
   C       -0.86699        12.79383         5.99425
   F       -0.37145        13.60855         5.04821
   F       -0.80879        13.44770         7.15001
   F       -0.01774        11.75288         6.08365
   C       -1.55464         9.97715         1.27031
   C       -0.30161        10.06669         0.77174
   C        0.10906         9.58799        -0.52038
   C       -0.80644         9.18742        -1.47430
   C       -0.38666         8.75580        -2.74403
   C       -1.09018         8.33402        -3.87115
   C       -2.53964         8.07122        -4.09261
   C       -2.81267         6.54818        -3.97272
   N       -2.44977         5.85641        -5.19680
   C       -3.50797         8.81946        -3.16509
   N       -4.86588         8.65804        -3.65885
   C       -0.09847         8.02082        -4.87723
   C       -0.24229         7.58367        -6.14097
   C        0.94800         7.26066        -6.98623
   C        2.26858         7.53616        -6.34323
   C        2.38624         8.00689        -5.08866
   C        1.23129         8.26378        -4.31121
   C        1.04615         8.72769        -3.02519
   C        1.96580         9.14479        -2.03475
   C        1.50901         9.56548        -0.82923
   C        0.77648         7.92043        -8.32343
   C        1.56203         8.90505        -8.78002
   C        1.38760         9.50972       -10.06186
   O        0.40732         9.12522       -10.87966
   C        0.49277         9.85133       -12.02981
   C        1.55407        10.72523       -11.94891
   C        2.14821        10.51937       -10.67901
   C        3.29605        11.16955       -10.10155
   O        3.77940        10.95924        -9.01475
   C        3.94313        12.24268       -11.02582
   F        3.07334        13.21843       -11.34002
   F        4.99710        12.81908       -10.45757
   F        4.35753        11.70980       -12.18907
   C       -0.43607         9.63431       -13.08376
   C       -1.45073         8.73629       -13.02005
   C       -2.34452         8.54656       -14.10152
   C       -3.39125         7.67142       -14.10673
   C       -4.32163         7.43758       -15.19866
   C       -4.30679         8.02779       -16.43576
   C       -5.24090         7.74997       -17.45668
   N       -5.96265         7.57065       -18.33118
   C       -3.37284         8.98517       -16.88432
   N       -2.65757         9.76650       -17.32836
   C       -5.28870         6.44116       -14.75242
   C       -4.96583         6.05475       -13.42022
   C       -3.77646         6.79472       -12.96799
   O       -3.23584         6.70163       -11.88451
   C       -5.70354         5.13024       -12.73797
   C       -6.81988         4.53681       -13.36789
   C       -7.14969         4.91734       -14.70075
   C       -6.36767         5.87782       -15.38183
   C       -8.26547         4.31956       -15.32148
   C       -9.02056         3.39055       -14.65889
   C       -8.69534         3.01702       -13.34625
   C       -7.61850         3.57772       -12.71457
   H       -9.41900         8.33880         5.33031
   H       -7.54294         8.11858         0.71332
   H       -9.22289         6.47180         0.11505
   H      -11.16107         5.07607         0.71394
   H      -12.10587         5.17113         2.98671
   H      -11.11906         6.66461         4.67898
   H       -4.97808        11.27083         5.52734
   H       -0.38280        11.57799         3.52570
   H       -2.33447         9.47801         0.71277
   H        0.46513        10.53553         1.37363
   H       -1.85674         9.23428        -1.25141
   H       -2.78767         8.35664        -5.12155
   H       -3.87613         6.43859        -3.72026
   H       -2.21210         6.14205        -3.15507
   H       -3.15769         6.01692        -5.90621
   H       -2.38490         4.85787        -5.04006
   H       -3.19354         9.87244        -3.08463
   H       -3.48142         8.36800        -2.17086
   H       -5.00953         9.22196        -4.49048
   H       -5.52671         8.97323        -2.95568
   H       -1.21097         7.43458        -6.58998
   H        0.89013         6.17386        -7.17482
   H        3.13957         7.31667        -6.94132
   H        3.35991         8.18518        -4.65705
   H        3.02299         9.12911        -2.25413
   H        2.20059         9.89120        -0.06615
   H       -0.05183         7.56795        -8.92374
   H        2.38375         9.28978        -8.19540
   H        1.85623        11.41666       -12.70785
   H       -0.28934        10.23814       -13.96871
   H       -1.59061         8.14340       -12.12852
   H       -2.16264         9.15103       -14.98065
   H       -5.43749         4.85451       -11.72819
   H       -6.64591         6.14391       -16.38890
   H       -8.51172         4.61067       -16.33202
   H       -9.87317         2.93827       -15.14270
   H       -9.30242         2.28267       -12.83829
   H       -7.36350         3.29364       -11.70399
*
