# ORCA input file
# SCF done       -220.240359888260          0.000759297101
! CAM-B3LYP def2-SVP def2/J RIJCOSX Grid4 TightSCF
%maxcore 5000
%tddft
    Mode sTDDFT
    Ethresh 5.0
    maxcore 5000
end

%pal
  nprocs 6
  end
* xyz 0 1
   C       -0.54195        12.03977       -12.04075
   C        0.53826        12.16423       -11.20798
   C        1.63596        13.00742       -11.47429
   N        2.54381        13.68866       -11.64457
   C        0.71597        11.38391       -10.04579
   N        0.92041        10.72600        -9.12754
   C       -0.65127        12.58947       -13.38620
   C       -1.62888        11.83737       -14.10290
   C       -1.91785        12.10248       -15.41068
   C       -1.23883        13.15362       -16.06727
   C       -0.27245        13.91817       -15.35101
   C        0.01190        13.61776       -13.99890
   C        0.39189        14.96788       -16.01713
   C        0.11912        15.24893       -17.32823
   C       -0.83117        14.49501       -18.03301
   C       -1.49519        13.46969       -17.41616
   C       -2.21530        10.81782       -13.21362
   O       -3.02589         9.96465       -13.48353
   C       -1.64104        11.11262       -11.86526
   C       -2.22750        10.62178       -10.74314
   C       -2.10679        11.10598        -9.41809
   C       -2.32277        10.39821        -8.25966
   C       -2.13507        11.12472        -7.05736
   C       -1.81154        12.50938        -7.21137
   O       -1.62039        13.38613        -6.41674
   S       -1.74481        12.78944        -9.02732
   C       -2.28859        10.23696        -5.99977
   O       -2.58840         8.99986        -6.48331
   C       -2.62118         9.02302        -7.87637
   O       -2.87416         8.04709        -8.52043
   C       -2.13498        10.48651        -4.62621
   C       -2.24230         9.52036        -3.67140
   C       -2.02203         9.68863        -2.27071
   C       -1.72062        10.91818        -1.70717
   C       -1.43960        11.01748        -0.33850
   C       -1.07276        12.11768         0.43538
   C       -0.95356        13.52099        -0.03630
   C       -1.98596        14.43763         0.65140
   N       -3.32551        14.07140         0.22761
   C        0.46750        14.09371         0.13689
   N        0.55317        15.37107        -0.54569
   C       -0.84505        11.61970         1.77239
   C       -0.43224        12.23178         2.89836
   C       -0.21111        11.47246         4.16392
   C       -0.57362        10.02682         4.10420
   C       -0.97833         9.42808         2.96890
   C       -1.11549        10.17353         1.77301
   C       -1.47487         9.81965         0.48884
   C       -1.82394         8.58103        -0.09980
   C       -2.08630         8.52532        -1.42881
   C       -0.81476        12.25523         5.29392
   C       -1.72449        11.79613         6.16343
   C       -2.24915        12.58578         7.23169
   C       -2.06040        13.91565         7.54442
   C       -2.72224        14.35787         8.72924
   C       -3.51252        13.36091         9.39682
   O       -4.21422        13.39564        10.36371
   S       -3.30094        11.82435         8.40418
   C       -2.45910        15.71165         8.87688
   O       -1.69058        16.13467         7.83173
   C       -1.39614        15.08268         6.98857
   O       -0.71164        15.23128         6.00863
   C       -2.81960        16.66727         9.85054
   C       -3.35875        16.36893        11.06548
   C       -3.69360        17.38811        11.98892
   C       -3.99497        17.17273        13.30239
   C       -4.43907        18.15377        14.27668
   C       -4.62411        19.49637        14.06587
   C       -5.06433        20.39987        15.05662
   N       -5.41320        21.18877        15.81394
   C       -4.40257        20.17776        12.85084
   N       -4.24906        20.80716        11.90258
   C       -4.66649        17.45676        15.53759
   C       -4.34353        16.08002        15.36562
   C       -3.88350        15.85049        13.98661
   O       -3.45498        14.81709        13.52438
   C       -4.45283        15.17858        16.38490
   C       -4.90278        15.61945        17.64917
   C       -5.23118        16.99441        17.83007
   C       -5.10588        17.90487        16.75610
   C       -5.67810        17.42454        19.09622
   C       -5.79435        16.54098        20.13454
   C       -5.46964        15.18783        19.95537
   C       -5.03372        14.73670        18.73899
   H       -2.65564        11.51731       -15.93923
   H        0.74032        14.21642       -13.47432
   H        1.12486        15.54346       -15.47121
   H        0.63480        16.05395       -17.83002
   H       -1.03451        14.73086       -19.06687
   H       -2.22793        12.88575       -17.95367
   H       -2.91686         9.79309       -10.87756
   H       -1.89259        11.51103        -4.38738
   H       -2.48515         8.52013        -4.00764
   H       -1.68911        11.80402        -2.32126
   H       -1.17652        13.54133        -1.10831
   H       -1.70766        15.47364         0.40549
   H       -1.93570        14.31207         1.73460
   H       -3.46123        14.29650        -0.75241
   H       -4.01966        14.58013         0.76205
   H        1.19091        13.34669        -0.23195
   H        0.67489        14.27139         1.19358
   H        0.48539        15.24617        -1.55034
   H        1.43458        15.82885        -0.34652
   H       -0.23697        13.29294         2.94609
   H        0.88033        11.51997         4.34360
   H       -0.44915         9.46579         5.01747
   H       -1.20527         8.37226         2.95421
   H       -1.86929         7.69323         0.51309
   H       -2.34404         7.58508        -1.89339
   H       -0.46935        13.27698         5.37033
   H       -2.09595        10.78263         6.10700
   H       -2.58426        17.69337         9.59638
   H       -3.52358        15.34081        11.35492
   H       -3.70832        18.40044        11.60485
   H       -4.19889        14.14106        16.22630
   H       -5.36125        18.93825        16.92811
   H       -5.92642        18.46723        19.22958
   H       -6.13717        16.88009        21.10050
   H       -5.56662        14.50486        20.78594
   H       -4.78218        13.69623        18.59469
*
