# ORCA input file
# SCF done       -124.195604073062          0.000773403238
! CAM-B3LYP def2-SVP def2/J RIJCOSX Grid4 TightSCF
%maxcore 5000
%tddft
    Mode sTDDFT
    Ethresh 5.0
    maxcore 5000
end

%pal
  nprocs 6
  end
* xyz 0 1
   C        1.60244        -0.66170        -4.38511
   S        2.24577        -2.25619        -4.14909
   C        1.19151        -2.30639        -2.73694
   N        0.50800        -1.21449        -2.58443
   N        0.74079        -0.30495        -3.50370
   C        1.10483        -3.42614        -1.86033
   S        2.03285        -4.87005        -2.10297
   C        1.35611        -5.60922        -0.68607
   C        0.44268        -4.74284        -0.07307
   C        0.30779        -3.51510        -0.74238
   C       -0.29243        -5.03595         1.08777
   N       -0.91053        -5.24486         2.03232
   C        1.78113        -6.91387        -0.33561
   C        1.38193        -7.60115         0.76755
   C        1.85696        -8.90266         1.05863
   N        1.47765        -9.61860         2.16902
   C        0.52110        -9.21554         3.17338
   C       -0.91738        -9.38342         2.69227
   C        2.10492       -10.87433         2.22512
   O        1.92752       -11.67919         3.11650
   C        2.94118       -10.90985         1.04378
   C        2.76660        -9.68860         0.34876
   C        3.60813        -9.72235        -0.82600
   O        3.79117        -8.91957        -1.72169
   N        4.24173       -10.97337        -0.76503
   C        5.20732       -11.37073        -1.76084
   C        6.64113       -11.16687        -1.27742
   C        3.86035       -11.69127         0.34726
   C        4.35189       -12.98043         0.66266
   C        3.94393       -13.67674         1.75682
   C        4.45355       -14.95807         2.07929
   O        5.41808       -15.54250         1.33240
   C        5.72163       -16.74370         1.86966
   C        4.93135       -16.95871         2.99926
   C        4.11202       -15.80394         3.13547
   C        3.15180       -15.58086         4.13268
   N        2.37193       -15.42887         4.95835
   C        4.92461       -18.07543         3.84563
   N        4.90646       -18.98432         4.54471
   C        6.72934       -17.52776         1.24501
   C        7.14649       -18.73803         1.67392
   C        8.17204       -19.46000         0.99535
   S        8.72559       -21.04059         1.55037
   C        9.80952       -20.97434         0.20073
   N        9.70931       -19.90432        -0.50513
   N        8.80272       -19.06190        -0.06773
   H        1.90918        -0.04297        -5.20341
   H       -0.34302        -2.71936        -0.42850
   H        2.48574        -7.37575        -1.01629
   H        0.68640        -7.15501         1.46109
   H        0.71139        -8.17983         3.46688
   H        0.69801        -9.86647         4.03411
   H       -1.11466        -8.76175         1.82193
   H       -1.60124        -9.09495         3.48498
   H       -1.10418       -10.42217         2.43077
   H        5.02183       -10.73521        -2.63140
   H        5.03439       -12.41303        -2.04274
   H        6.80739       -10.11817        -1.04363
   H        7.33746       -11.46364        -2.05677
   H        6.84149       -11.75581        -0.38510
   H        5.08225       -13.42405         0.00069
   H        3.20676       -13.26855         2.43536
   H        7.18358       -17.09724         0.36357
   H        6.72029       -19.20452         2.54952
   H       10.49855       -21.76527        -0.01546
*
