# ORCA input file
# SCF done       -139.563753616643          0.000550316576
! CAM-B3LYP def2-SVP def2/J RIJCOSX Grid4 TightSCF
%maxcore 5000
%tddft
    Mode sTDDFT
    Ethresh 5.0
    maxcore 5000
end

%pal
  nprocs 6
  end
* xyz 0 1
   C        0.87896         0.87402         0.05227
   N        1.38405        -0.09110         0.76966
   N        1.01339        -1.33732         0.62694
   C        0.10182        -1.72260        -0.24728
   C       -0.52107        -0.75630        -1.08683
   C       -0.10549         0.60588        -0.92285
   N       -0.74609         1.42679        -1.75481
   S       -1.76288         0.56404        -2.64584
   N       -1.44951        -0.88963        -2.02999
   C       -0.20529        -3.11913        -0.29511
   S        0.63273        -4.20027         0.76735
   C       -0.22872        -5.56829         0.12734
   C       -1.13523        -5.16487        -0.85840
   C       -1.11068        -3.77865        -1.09055
   C       -2.04548        -5.99737        -1.53332
   N       -2.83700        -6.61174        -2.09206
   C        0.06955        -6.85700         0.64273
   C       -0.34678        -8.03040         0.10213
   C       -0.07464        -9.35055         0.54608
   N        0.39240        -9.79034         1.76681
   C        0.68111        -9.02563         2.95658
   C        2.14852        -8.60611         3.02193
   C        0.52608       -11.19067         1.80042
   O        0.91549       -11.79952         2.77960
   C        0.10566       -11.63124         0.49182
   C       -0.26432       -10.48078        -0.24471
   C       -0.68297       -10.90143        -1.56403
   O       -1.05841       -10.29077        -2.53872
   N       -0.56571       -12.30964        -1.52290
   C       -0.86667       -13.11223        -2.68288
   C        0.39725       -13.52601        -3.43312
   C       -0.08866       -12.75346        -0.31389
   C        0.12987       -14.12064        -0.00550
   C        0.63952       -14.51978         1.18667
   C        0.87442       -15.87488         1.54582
   S        1.56861       -16.22451         3.10086
   C        1.53118       -17.93011         2.79916
   C        1.87863       -18.90907         3.84211
   O        1.46456       -20.03839         3.84083
   O        2.67106       -18.46734         4.83124
   C        1.00569       -18.19946         1.54503
   C        0.63331       -17.04051         0.84908
   C        0.88222       -19.54068         0.98809
   N       -0.21506       -19.84507         0.33751
   N       -0.43257       -21.04075        -0.16243
   C        0.40422       -22.02657        -0.00279
   C        1.63889       -21.82428         0.64934
   C        1.91400       -20.50363         1.12785
   N        3.13893       -20.39335         1.63843
   S        3.84063       -21.83397         1.56968
   N        2.66150       -22.65433         0.86014
   H        1.24510         1.87146         0.23805
   H       -1.73304        -3.27725        -1.81035
   H        0.72716        -6.84358         1.49806
   H       -0.91710        -8.00950        -0.81790
   H        0.46743        -9.68527         3.80371
   H        0.00965        -8.16615         3.00399
   H        2.77600        -9.49126         3.08750
   H        2.31877        -7.99285         3.90255
   H        2.44181        -8.04422         2.13770
   H       -1.48568       -12.48401        -3.32959
   H       -1.44757       -13.98878        -2.38268
   H        0.93655       -12.64202        -3.76418
   H        0.13043       -14.11670        -4.30497
   H        1.05527       -14.11504        -2.79767
   H       -0.12588       -14.85287        -0.75660
   H        0.89121       -13.77422         1.93000
   H        2.93936       -17.54474         4.72262
   H        0.19972       -17.08071        -0.13262
   H        0.11914       -22.98596        -0.40643
*
