# ORCA input file
# SCF done       -190.866737839570          0.000430490004
! CAM-B3LYP def2-SVP def2/J RIJCOSX Grid4 TightSCF
%maxcore 5000
%tddft
    Mode sTDDFT
    Ethresh 5.0
    maxcore 5000
end

%pal
  nprocs 6
  end
* xyz 0 1
   C        0.34705         0.88464         7.54674
   C       -0.23978        -0.20537         6.96779
   F       -1.50468        -0.12468         6.52855
   C        0.43073        -1.44033         6.81362
   F       -0.25017        -2.45761         6.26100
   C        1.72728        -1.63194         7.24047
   C        2.36421        -0.51128         7.82669
   C        1.67258         0.73949         7.98569
   N        2.44417         1.66055         8.56375
   S        3.87850         1.01300         8.87008
   N        3.61650        -0.45275         8.27478
   C        2.41352        -2.90762         7.15457
   C        3.01484        -3.58122         8.19017
   N        3.07075        -3.20146         9.54673
   O        2.33115        -2.31415         9.93564
   O        3.85045        -3.80480        10.26061
   C        3.54420        -4.83783         7.70273
   C        3.20954        -4.96352         6.40020
   C        2.51550        -3.76722         5.97865
   C        2.14364        -3.42299         4.69636
   C        2.05911        -2.09859         4.16930
   C        1.91341        -2.17925         2.81955
   C        1.83376        -3.55621         2.42567
   N        1.65326        -3.87827         1.07282
   O        1.35321        -2.96702         0.31934
   O        1.82425        -5.03016         0.69337
   C        1.92591        -4.36190         3.57102
   C        1.63472        -5.70965         3.83794
   C        1.46799        -6.73662         2.94177
   C        1.14193        -8.03718         3.35620
   N        0.99367        -9.09436         2.49103
   C        1.16758        -9.05823         1.05685
   C        2.64118        -9.09730         0.66312
   C        0.68450       -10.28930         3.15581
   O        0.50703       -11.34850         2.59283
   C        0.63284        -9.91448         4.55877
   C        0.90920        -8.53832         4.65121
   C        0.84469        -8.16247         6.04962
   O        1.01899        -7.10486         6.61967
   N        0.52854        -9.35901         6.71688
   C        0.32355        -9.37682         8.14590
   C       -1.15989        -9.34844         8.50521
   C        0.39523       -10.41429         5.84919
   C        0.09775       -11.73252         6.26088
   C        0.04359       -12.78002         5.39518
   C       -0.24382       -14.12959         5.76218
   C       -0.78718       -14.53424         6.98208
   N       -1.00814       -15.78660         7.32678
   C       -0.75405       -16.79279         6.49886
   C       -0.28504       -16.52385         5.16957
   C       -0.00844       -15.17499         4.81651
   N        0.48206       -14.87169         3.60154
   C        0.67732       -15.84747         2.75916
   C        0.37713       -17.18231         3.09578
   N       -0.09344       -17.50543         4.27016
   C       -0.98429       -18.09614         7.05937
   C       -0.72634       -19.27071         6.44731
   C       -0.94327       -20.59071         6.97938
   C       -1.49369       -20.92347         8.20758
   F       -1.90062       -19.97341         9.06211
   C       -1.66182       -22.26048         8.63297
   F       -2.20560       -22.45932         9.84242
   C       -1.29837       -23.33772         7.87312
   C       -0.73584       -23.06193         6.61773
   C       -0.56055       -21.70322         6.17566
   N       -0.01296       -21.64498         4.96415
   S        0.25008       -23.14028         4.43987
   N       -0.31000       -23.94170         5.71117
   H       -0.18540         1.81221         7.66886
   H        4.09331        -5.52386         8.31799
   H        3.50102        -5.75916         5.74412
   H        2.20863        -1.20029         4.73586
   H        1.86971        -1.36677         2.11839
   H        1.50843        -5.94193         4.88681
   H        1.60601        -6.55830         1.88686
   H        0.68724        -8.16399         0.65348
   H        0.65808        -9.94426         0.66846
   H        3.16764        -8.22546         1.04319
   H        2.72705        -9.10685        -0.41937
   H        3.11158        -9.99434         1.05917
   H        0.80967        -8.47664         8.53220
   H        0.81505       -10.25391         8.57531
   H       -1.61889        -8.44429         8.11317
   H       -1.27567        -9.35491         9.58525
   H       -1.68143       -10.20849         8.09070
   H       -0.06139       -11.89483         7.31711
   H        0.24769       -12.62289         4.34319
   H       -1.07169       -13.80809         7.73193
   H        1.06918       -15.57874         1.78798
   H        0.51773       -17.99201         2.39292
   H       -1.38396       -18.04944         8.06191
   H       -0.31172       -19.26662         5.44906
   H       -1.43703       -24.34716         8.21992
*
