# ORCA input file
# SCF done       -192.173621356895          0.000660738195
! CAM-B3LYP def2-SVP def2/J RIJCOSX Grid4 TightSCF
%maxcore 5000
%tddft
    Mode sTDDFT
    Ethresh 5.0
    maxcore 5000
end

%pal
  nprocs 6
  end
* xyz 0 1
   C      -11.47418         0.56822         6.93399
   O      -12.37765        -0.10682         6.51671
   C      -11.59676         1.88358         7.60555
   C      -10.35326         2.27274         8.13170
   C      -10.24150         3.48274         8.80028
   C      -11.37316         4.27766         8.93183
   C      -12.60750         3.87662         8.41287
   C      -12.72487         2.66522         7.74465
  Br      -14.12777         4.97855         8.61024
  Br      -11.21877         5.93094         9.83389
   C       -9.36405         1.24053         7.83442
   C       -8.07216         1.23244         8.28408
   C       -7.51254         2.24321         9.09795
   N       -7.00254         3.02706         9.76222
   C       -7.11653         0.22102         8.04035
   N       -6.28338        -0.55520         7.89677
   C      -10.01595         0.24145         6.99641
   C       -9.39775        -0.80240         6.38800
   C       -9.95627        -1.69700         5.43598
   S       -9.07809        -3.16941         4.99148
   C      -10.38099        -3.44358         3.85838
   N      -11.27876        -2.49298         3.88687
   N      -11.04522        -1.55219         4.73910
   C      -10.40411        -4.57154         2.98411
   C      -11.42694        -4.79701         2.14292
   C      -11.50584        -5.90485         1.21637
   C      -10.46789        -6.35554         0.37529
   C       -9.20286        -5.61483         0.19202
   O       -8.82593        -4.62292         0.74497
   S       -8.23592        -6.40689        -1.08808
   C       -9.49832        -7.64695        -1.41726
   O       -9.40450        -8.40125        -2.33899
   C      -10.60266        -7.47738        -0.45602
   C      -11.77093        -8.27546        -0.47031
   C      -12.83612        -7.73545         0.26968
   C      -12.70993        -6.60215         1.06679
   C      -14.02129        -6.36452         1.70836
   O      -14.36239        -5.51814         2.47543
   O      -14.87192        -7.34790         1.25827
   C      -14.22823        -8.20946         0.40188
   O      -14.77907        -9.14354        -0.10033
   C      -11.95044        -9.52951        -1.14745
   C      -10.99551       -10.46392        -1.31247
   C      -11.18214       -11.74437        -1.94303
   C      -12.41076       -12.28292        -2.28857
   C      -12.51764       -13.52097        -2.91551
   C      -11.40784       -14.27502        -3.24880
   C      -10.12646       -13.75330        -2.92087
   C      -10.01865       -12.51128        -2.24125
   N       -8.80823       -12.05717        -1.87637
   C       -7.73250       -12.72532        -2.19721
   C       -6.43427       -12.18635        -1.67805
   C       -6.09686       -12.83455        -0.33261
   C       -7.83498       -13.92502        -2.96206
   C       -6.64451       -14.67059        -3.48494
   C       -6.18063       -14.05614        -4.80791
   N       -9.00694       -14.40685        -3.27981
   C      -11.53060       -15.56791        -3.92097
   C      -10.71898       -16.63295        -3.59030
   C      -10.83009       -17.87245        -4.23172
   C      -11.75672       -18.07499        -5.21784
   C      -12.60682       -17.01805        -5.59030
   C      -12.50024       -15.75524        -4.94443
   N      -13.30603       -14.75092        -5.32894
   C      -14.19323       -14.94319        -6.26818
   C      -15.08572       -13.78011        -6.58226
   C      -16.34448       -13.83236        -5.71197
   C      -14.31208       -16.21706        -6.90155
   C      -15.27736       -16.49221        -8.01520
   C      -14.64507       -16.13344        -9.36246
   N      -13.52500       -17.20050        -6.55716
   H       -9.30839         3.82669         9.21577
   H      -13.67021         2.34143         7.33752
   H       -8.35307        -0.98693         6.60108
   H       -9.55110        -5.23189         3.03440
   H      -12.29684        -4.15616         2.20088
   H      -12.97058        -9.73831        -1.43674
   H       -9.98636       -10.28902        -0.96912
   H      -13.31619       -11.74796        -2.04696
   H      -13.49761       -13.90764        -3.14381
   H       -6.54812       -11.11051        -1.53903
   H       -5.62806       -12.36614        -2.38862
   H       -5.15944       -12.43820         0.04893
   H       -6.00134       -13.91382        -0.43268
   H       -6.88206       -12.62616         0.38979
   H       -6.94322       -15.70490        -3.66019
   H       -5.82974       -14.65507        -2.76129
   H       -5.90765       -13.01102        -4.67934
   H       -6.97933       -14.11315        -5.54304
   H       -5.31754       -14.59637        -5.18880
   H       -9.98859       -16.51211        -2.80650
   H      -10.17428       -18.67651        -3.93235
   H      -11.86467       -19.02262        -5.72131
   H      -15.36284       -13.77721        -7.63593
   H      -14.53725       -12.86418        -6.35812
   H      -16.07340       -13.79154        -4.65995
   H      -16.90319       -14.74971        -5.88620
   H      -16.98891       -12.98625        -5.93634
   H      -16.20037       -15.93016        -7.87518
   H      -15.50778       -17.55824        -8.00537
   H      -14.37796       -15.07936        -9.40155
   H      -15.34172       -16.34480       -10.16979
   H      -13.74364       -16.72110        -9.51717
*
