# ORCA input file
# SCF done       -186.096184205945          0.000876565544
! CAM-B3LYP def2-SVP def2/J RIJCOSX Grid4 TightSCF
%maxcore 5000
%tddft
    Mode sTDDFT
    Ethresh 5.0
    maxcore 5000
end

%pal
  nprocs 6
  end
* xyz 0 1
   C       -3.78595        -2.30080         6.45896
   O       -3.57953        -3.48602         6.36370
   C       -5.11381        -1.64563         6.46317
   C       -4.96566        -0.25417         6.59149
   C       -6.09113         0.55312         6.64079
   C       -7.34304        -0.04456         6.55438
   C       -7.47933        -1.42858         6.41818
   C       -6.35466        -2.24181         6.37357
  Br       -9.19518        -2.20862         6.29781
  Br       -8.88066         1.05116         6.63169
   C       -3.54207         0.06544         6.64310
   C       -3.00884         1.32461         6.60169
   C       -3.78312         2.50594         6.58255
   N       -4.36354         3.49526         6.57088
   C       -1.63067         1.62476         6.51653
   N       -0.53418         1.94635         6.41187
   C       -2.80964        -1.19152         6.64907
   C       -1.48218        -1.31510         6.94031
   C       -0.68291        -2.47968         6.94132
   O       -1.05454        -3.66385         6.43609
   C       -0.05779        -4.54570         6.61328
   C        1.01209        -3.92659         7.24974
   C        0.62229        -2.59699         7.45671
   C        1.36053        -1.58184         8.08523
   N        1.96502        -0.76278         8.61096
   C       -0.25254        -5.88323         6.16231
   C        0.62999        -6.88518         6.35786
   C        0.37939        -8.21793         5.92222
   S        1.44514        -9.55247         6.34363
   C        0.31254       -10.56114         5.45706
   N       -0.67442        -9.87730         4.95433
   N       -0.64100        -8.60423         5.20895
   C        0.47289       -11.97693         5.37445
   C       -0.34786       -12.75176         4.64595
   C       -0.27013       -14.19363         4.60044
   C       -0.42062       -14.91918         3.40230
   C       -0.60864       -14.26383         2.08901
   O       -0.65579       -13.09404         1.85375
   S       -0.74184       -15.52123         0.82173
   C       -0.43229       -16.86172         1.98230
   O       -0.25312       -17.98655         1.62924
   C       -0.37057       -16.30706         3.35094
   C       -0.20570       -17.11921         4.49779
   C       -0.06422       -16.39003         5.69566
   C       -0.08994       -14.99528         5.73684
   C       -0.05099       -14.59510         7.16717
   O       -0.07120       -13.51856         7.67723
   O       -0.00395       -15.74850         7.90569
   C        0.00158       -16.86165         7.10029
   O        0.04721       -17.96116         7.56020
   C       -0.28296       -18.54795         4.40493
   C        0.40703       -19.42629         5.16726
   C        0.22167       -20.83078         5.05306
   N        0.95176       -21.75503         5.76087
   C        1.99874       -21.47514         6.71358
   C        3.32340       -21.15284         6.02620
   C        0.57322       -23.07404         5.45526
   O        1.08617       -24.05176         5.96054
   C       -0.48980       -22.92329         4.48450
   C       -0.68446       -21.53305         4.26673
   C       -1.77314       -21.37994         3.32699
   O       -2.32819       -20.40044         2.87279
   N       -2.15205       -22.70112         3.01828
   C       -3.17863       -22.96662         2.03941
   C       -2.58146       -23.32764         0.68143
   C       -1.39816       -23.62317         3.69932
   C       -1.58744       -25.04039         3.58339
   C       -0.84416       -25.92622         4.25108
   H       -6.02628         1.62346         6.75011
   H       -6.44485        -3.31224         6.27163
   H       -0.93758        -0.43018         7.24702
   H        1.94844        -4.36621         7.52518
   H       -1.18653        -6.08186         5.65684
   H        1.56081        -6.71913         6.88000
   H        1.29737       -12.39382         5.93335
   H       -1.09556       -12.27718         4.02573
   H       -0.93884       -18.93219         3.63309
   H        1.14354       -19.08047         5.87488
   H        2.11126       -22.38247         7.31373
   H        1.68457       -20.65596         7.36607
   H        3.64089       -21.99617         5.41774
   H        4.08689       -20.95751         6.77403
   H        3.22962       -20.27963         5.38404
   H       -3.75737       -22.04290         1.95091
   H       -3.83716       -23.76059         2.40178
   H       -1.97194       -22.50524         0.31513
   H       -3.37800       -23.51497        -0.03322
   H       -1.95760       -24.21601         0.75316
   H       -2.37457       -25.37619         2.92264
   H       -0.05265       -25.61523         4.91265
   H       -1.01113       -26.98422         4.14507
*
