# ORCA input file
# SCF done       -184.095543102134          0.000515572712
! CAM-B3LYP def2-SVP def2/J RIJCOSX Grid4 TightSCF
%maxcore 5000
%tddft
    Mode sTDDFT
    Ethresh 5.0
    maxcore 5000
end

%pal
  nprocs 6
  end
* xyz 0 1
   C        2.28879        -5.83981        -4.37898
   C        1.15480        -6.28006        -4.99175
   S        0.97540        -5.58658        -6.55876
   C        2.46728        -4.69465        -6.40206
  Cl        3.01183        -3.68952        -7.64723
   C        3.04398        -4.92525        -5.18646
   C        4.22655        -4.48204        -4.44675
   O        5.17786        -3.84658        -4.83323
   C        4.05325        -5.05815        -3.07434
   C        2.95222        -6.01968        -3.10248
   C        2.55827        -6.86985        -2.11229
   C        1.38945        -7.64937        -2.24809
   N        0.42298        -8.25916        -2.34457
   C        3.23998        -7.06833        -0.89161
   N        3.75952        -7.29347         0.10480
   C        4.72274        -4.61174        -1.99467
   C        5.48526        -3.37392        -1.98152
   C        6.74465        -3.26403        -1.44712
   C        7.56168        -4.40122        -0.93174
   F        7.49640        -5.47411        -1.73477
   F        8.85551        -4.07948        -0.81330
   F        7.15449        -4.81078         0.27986
   S        7.35545        -1.66067        -1.42310
   C        5.88312        -1.08720        -2.13978
   C        5.70104         0.29633        -2.24972
   N        5.57713         1.43644        -2.28370
   C        4.98453        -2.09855        -2.41640
   C        3.67742        -1.98693        -3.03741
   N        3.39769        -1.39273        -4.24231
   C        4.19379        -0.44711        -4.99625
   C        5.31056        -1.08575        -5.81255
   C        2.11982        -1.77805        -4.71010
   O        1.69742        -1.50460        -5.81607
   C        1.55809        -2.55352        -3.63548
   C        2.54312        -2.65973        -2.61763
   C        1.99513        -3.49373        -1.57070
   O        2.46201        -3.88393        -0.52127
   N        0.71602        -3.85937        -2.03915
   C       -0.16588        -4.64631        -1.21004
   C       -1.30436        -3.80753        -0.63802
   C        0.46167        -3.32801        -3.28256
   C       -0.59096        -3.60624        -4.19833
   C       -1.66676        -4.41251        -4.11948
   C       -2.44222        -4.65996        -5.32326
   N       -3.63395        -5.24425        -5.19776
   C       -4.30366        -5.47585        -6.31301
   C       -3.80424        -5.15568        -7.56689
   C       -2.53513        -4.56209        -7.60399
   N       -1.87431        -4.32318        -6.47450
   C       -1.86897        -4.20986        -8.84080
   C       -0.72970        -3.49029        -8.84764
   C        0.00866        -3.18347       -10.02492
   C        1.02678        -2.29513       -10.13405
   C        1.97244        -2.40183       -11.29428
   O        1.79585        -3.03743       -12.30458
   C        3.14422        -1.62623       -10.87605
   C        4.40058        -1.37783       -11.34480
   S        5.26986        -0.33632       -10.24435
   C        3.92130        -0.23909        -9.16944
   C        2.87265        -0.97030        -9.62924
   C        1.51206        -1.27132        -9.21966
   C        0.80572        -0.55908        -8.29275
   C        1.41970         0.48927        -7.57227
   N        1.92231         1.35302        -7.00933
   C       -0.57083        -0.69995        -8.02463
   N       -1.69610        -0.73685        -7.80329
  Cl        5.11433        -1.94598       -12.77216
   H        0.41194        -6.96425        -4.63243
   H        4.62182        -5.10411        -1.03570
   H        4.60254         0.29562        -4.31030
   H        3.48760         0.05700        -5.66376
   H        5.98410        -1.65593        -5.17946
   H        5.87666        -0.30563        -6.31436
   H        4.90116        -1.76061        -6.55876
   H        0.45474        -5.02655        -0.39242
   H       -0.54669        -5.49605        -1.78310
   H       -0.90287        -3.01465        -0.01163
   H       -1.94999        -4.43562        -0.03111
   H       -1.89554        -3.35644        -1.43135
   H       -0.43554        -3.11633        -5.15305
   H       -2.00898        -4.91457        -3.23025
   H       -5.27269        -5.94234        -6.19044
   H       -4.36077        -5.35497        -8.46768
   H       -2.33698        -4.52731        -9.76217
   H       -0.33438        -3.15925        -7.89752
   H       -0.19338        -3.77784       -10.91022
   H        4.00169         0.34621        -8.27587
*
