# ORCA input file
# SCF done       -167.829748439916          0.000954210100
! CAM-B3LYP def2-SVP def2/J RIJCOSX Grid4 TightSCF
%maxcore 5000
%tddft
    Mode sTDDFT
    Ethresh 5.0
    maxcore 5000
end

%pal
  nprocs 6
  end
* xyz 0 1
   C        0.03864         2.23329        -3.59737
   C       -1.06978         1.45419        -3.75271
   S       -1.03383        -0.00699        -2.83332
   C        0.51325         0.40938        -2.22863
   C        0.95513         1.63370        -2.71752
   C        2.26539         1.93792        -2.13137
   O        2.95064         2.92380        -2.26144
   C        2.61903         0.71053        -1.34160
   C        1.44471        -0.14838        -1.28478
   C        1.14644        -1.13511        -0.37993
   C       -0.08942        -1.81391        -0.43001
   N       -1.09092        -2.37036        -0.48101
   C        1.96092        -1.48958         0.71084
   N        2.57564        -1.77868         1.63619
   C        3.89426         0.55134        -0.91056
   C        4.55106        -0.63224        -0.48117
   S        5.94766        -0.52763         0.55240
   C        6.18149        -2.24497         0.52718
   C        5.21481        -2.85503        -0.27723
   C        4.30371        -1.94294        -0.83033
   C        5.07369        -4.23860        -0.48832
   N        4.88426        -5.35345        -0.67947
   C        7.24260        -2.80407         1.28410
   C        7.69867        -4.07630         1.15956
   C        8.75534        -4.70112         1.87193
   N        9.36211        -4.33120         3.05515
   C        8.98092        -3.29205         3.98359
   C        7.60493        -3.53687         4.59481
   C       10.38251        -5.23174         3.41618
   O       11.04970        -5.11477         4.42758
   C       10.40708        -6.20792         2.35404
   C        9.39148        -5.85850         1.43320
   C        9.41743        -6.81281         0.34509
   O        8.77079        -6.91227        -0.67232
   N       10.44675        -7.71121         0.70774
   C       10.81651        -8.80364        -0.15881
   C       12.06662        -8.48474        -0.97563
   C       11.04762        -7.35799         1.89091
   C       12.11324        -8.08232         2.48451
   C       12.70165        -7.67664         3.63769
   C       13.77549        -8.34847         4.28197
   S       14.46297        -7.64412         5.71649
   C       15.60334        -8.92714         5.86759
   C       16.67483        -8.89171         6.88597
   O       17.75514        -9.38717         6.70054
   O       16.39417        -8.23891         8.01689
   C       15.45460        -9.86410         4.85488
   C       14.42972        -9.51733         3.95615
   C       16.24450       -11.06906         4.71323
   C       16.60190       -11.89385         5.71440
   C       17.50108       -13.04604         5.60326
   C       18.06417       -13.58956         4.48066
   C       18.92899       -14.70223         4.57397
   N       19.62545       -15.61081         4.64311
   C       17.83959       -13.15700         3.15935
   N       17.67537       -12.86191         2.06209
   C       17.69770       -13.51830         6.94152
   C       16.93310       -12.80255         7.85717
   C       17.10379       -13.24726         9.17864
   C       17.99364       -14.27910         9.23461
   S       18.63356       -14.73699         7.69756
   C       16.16601       -11.77944         7.14922
   O       15.32250       -11.03622         7.60006
   H        0.18853         3.18058        -4.08096
   H       -1.93096         1.65633        -4.35927
   H        4.50885         1.44532        -0.96149
   H        3.51501        -2.24202        -1.49876
   H        7.72018        -2.11157         1.96079
   H        7.27460        -4.71346         0.39399
   H        9.03253        -2.31298         3.49991
   H        9.74181        -3.32009         4.77023
   H        6.82813        -3.54699         3.83420
   H        7.38004        -2.75280         5.31245
   H        7.59396        -4.49341         5.11169
   H        9.96799        -8.95249        -0.83253
   H       10.95802        -9.71144         0.43455
   H       11.89007        -7.60887        -1.59495
   H       12.30744        -9.32389        -1.62220
   H       12.91805        -8.28446        -0.32861
   H       12.45150        -8.97890         1.98691
   H       12.34927        -6.77259         4.11760
   H       15.46552        -7.97710         8.08469
   H       14.16863       -10.12927         3.11184
   H       16.54621       -11.29735         3.69875
   H       16.60628       -12.82589        10.03223
   H       18.32231       -14.81159        10.10591
*
