# ORCA input file
# SCF done       -178.052131236902          0.000368939240
! CAM-B3LYP def2-SVP def2/J RIJCOSX Grid4 TightSCF
%maxcore 5000
%tddft
    Mode sTDDFT
    Ethresh 5.0
    maxcore 5000
end

%pal
  nprocs 6
  end
* xyz 0 1
   C        4.08165         4.98185        -2.73270
   C        3.82660         5.34630        -4.02894
   C        4.79409         5.32762        -5.05657
   N        5.53130         5.34310        -5.93628
   C        2.57491         5.74644        -4.54308
   N        1.58991         6.06156        -5.04318
   C        5.34962         4.46252        -2.23883
   C        5.16138         4.01340        -0.90135
   C        6.17717         3.46301        -0.17377
   C        7.45625         3.34164        -0.76081
   C        7.65575         3.79674        -2.09656
   C        6.58286         4.35749        -2.82647
   C        8.93770         3.67596        -2.67060
   C        9.97357         3.13142        -1.96142
   C        9.77591         2.68338        -0.64670
   C        8.54401         2.78576        -0.05923
   C        3.76846         4.25000        -0.48985
   O        3.27594         3.93414         0.57285
   C        3.13022         4.96037        -1.62923
   C        1.93739         5.62316        -1.65531
   C        0.89360         5.70674        -0.70610
   S       -0.39353         6.84372        -1.07305
   C       -1.25764         6.42768         0.36505
   C       -0.56512         5.43880         1.07810
   C        0.63336         5.04141         0.47641
   C       -1.05525         4.91337         2.28698
   N       -1.47434         4.49968         3.27102
   C       -2.48661         7.01931         0.74085
   C       -3.09452         8.00807         0.03878
   C       -4.32499         8.61657         0.38693
   N       -4.86116         9.62834        -0.35969
   C       -6.05119        10.03412         0.15325
   C       -6.29200         9.25438         1.30828
   C       -5.21053         8.37858         1.43917
   C       -7.38821         9.42921         2.27967
   O       -8.02963        10.45139         2.35348
   C       -7.61734         8.26011         3.20252
   C       -6.82304        11.04712        -0.48227
   C       -8.17815        11.26034        -0.42947
   C       -8.50794        12.37289        -1.25717
   C       -7.22953        12.87583        -1.80288
   C       -6.24144        12.05927        -1.35965
   C       -7.01791        14.00309        -2.60666
   N       -6.76544        14.92882        -3.23780
   C       -9.75753        12.85948        -1.55001
   C      -10.06573        13.96677        -2.40028
   C      -11.43065        14.12912        -2.45318
   C      -12.03181        13.10792        -1.59899
   C      -11.04828        12.33411        -1.07272
   C      -11.25100        11.20948        -0.26290
   N      -11.45960        10.27621         0.37281
   C      -12.21725        15.11287        -3.11058
   C      -11.87987        15.90225        -4.16936
   C      -12.67954        16.99920        -4.69482
   C      -13.86848        17.46664        -4.19648
   C      -14.59239        18.54129        -4.75662
   N      -15.23776        19.40092        -5.15961
   C      -14.55889        16.96203        -3.07432
   N      -15.18782        16.62172        -2.17532
   C      -11.97483        17.55761        -5.84282
   C      -10.79130        16.79872        -6.06400
   C      -10.69966        15.72122        -5.06699
   O       -9.87838        14.83239        -5.04361
   C       -9.91542        17.09558        -7.06826
   C      -10.18437        18.19611        -7.91137
   C      -11.36936        18.95966        -7.70164
   C      -12.26040        18.62253        -6.65739
   C      -11.62929        20.05554        -8.54996
   C      -10.76021        20.38481        -9.55416
   C       -9.59249        19.63394        -9.75765
   C       -9.31085        18.56263        -8.95407
   H        6.00663         3.12696         0.83827
   H        6.76795         4.69780        -3.83283
   H        9.08456         4.02107        -3.68350
   H       10.95161         3.04283        -2.41000
   H       10.60465         2.25697        -0.10164
   H        8.38590         2.44263         0.95270
   H        1.74334         6.21778        -2.54097
   H        1.29236         4.29873         0.88866
   H       -2.93338         6.64066         1.64976
   H       -2.61397         8.37398        -0.86142
   H       -4.45573         9.98367        -1.21145
   H       -5.06453         7.66128         2.22083
   H       -6.79721         8.19564         3.91533
   H       -7.66234         7.33077         2.64077
   H       -8.54453         8.41065         3.74855
   H       -8.88911        10.68780         0.12985
   H       -5.19318        12.17303        -1.57133
   H       -9.33013        14.57198        -2.88880
   H      -13.08923        12.99259        -1.44456
   H      -13.21072        15.22865        -2.69332
   H       -9.02402        16.50246        -7.20829
   H      -13.14754        19.22154        -6.52815
   H      -12.52881        20.63145        -8.38897
   H      -10.96729        21.22695       -10.19733
   H       -8.91747        19.90900       -10.55424
   H       -8.41360        17.98058        -9.10512
*
