# ORCA input file
# SCF done       -231.318102085791          0.000990786728
! CAM-B3LYP def2-SVP def2/J RIJCOSX Grid4 TightSCF
%maxcore 5000
%tddft
    Mode sTDDFT
    Ethresh 5.0
    maxcore 5000
end

%pal
  nprocs 6
  end
* xyz 0 1
   C        1.03644         0.74746        -3.78620
   C        2.08889         0.11907        -4.39015
   C        2.43959        -1.22951        -4.16854
   N        2.76357        -2.32058        -4.02397
   C        2.97997         0.78599        -5.25689
   N        3.73105         1.32075        -5.94041
   C        0.12749         0.18883        -2.79925
   C       -0.65667         1.24128        -2.23798
   C       -1.61124         0.99772        -1.29281
   C       -1.83494        -0.33005        -0.86586
   C       -1.05734        -1.38674        -1.42496
   C       -0.07084        -1.10606        -2.39589
   C       -1.29849        -2.70837        -0.99616
   C       -2.26166        -2.97628        -0.06223
   C       -3.02630        -1.93597         0.48763
   C       -2.81644        -0.64160         0.09579
   C       -0.27131         2.51905        -2.85206
   O       -0.55885         3.64275        -2.51486
   C        0.63669         2.13385        -3.98306
   C        0.83037         2.91444        -5.06061
   C        0.16077         4.17746        -5.27110
   C       -1.19902         4.39509        -5.29489
   N       -2.24490         3.47321        -5.08648
   O       -1.97660         2.33873        -4.71604
   O       -3.37628         3.86095        -5.30502
   C       -1.46604         5.75690        -5.71342
   C       -0.28874         6.38481        -5.89705
   C        0.79227         5.46339        -5.60067
   C        2.13854         5.73222        -5.59341
   C        3.20910         4.77443        -5.59398
   C        4.34463         5.38241        -6.02080
   C        4.08138         6.78214        -6.22103
   N        5.08568         7.68510        -6.60832
   O        6.19311         7.22702        -6.82557
   O        4.80714         8.87165        -6.72037
   C        2.76137         7.05451        -5.87554
   C        2.21972         8.34599        -5.72706
   C        1.24893         8.71364        -4.83801
   C        0.78382        10.03666        -4.68006
   S       -0.26822        10.44301        -3.36106
   C       -0.29221        12.12054        -3.80096
   C        0.45419        12.34325        -4.96106
   C        1.07744        11.17726        -5.44606
   O        1.86664        11.05178        -6.53597
   C        2.37300        12.19387        -7.14609
   S        1.01333        13.31189        -7.65874
   S        0.55726        13.91407        -5.74960
   C       -1.01653        13.03103        -2.99411
   C       -0.86242        14.37622        -3.04448
   C       -1.58496        15.34860        -2.28214
   C       -1.00594        16.60499        -1.97310
   C        0.35848        17.00041        -2.38437
   O        1.17440        16.36214        -2.98205
   S        0.68985        18.67315        -1.83004
   C       -0.88444        18.80967        -0.99003
   O       -1.19274        19.76528        -0.34368
   C       -1.66784        17.57853        -1.22880
   C       -2.96658        17.39916        -0.71437
   C       -3.56450        16.18409        -1.08393
   C       -2.91482        15.20699        -1.83183
   C       -3.92629        14.16111        -2.14181
   O       -3.83965        13.15606        -2.77630
   O       -5.10981        14.55778        -1.57583
   C       -4.98301        15.76375        -0.93275
   O       -5.90627        16.31412        -0.42316
   C       -3.62502        18.39747         0.09054
   C       -4.35910        18.11179         1.18565
   C       -4.97952        19.14079         1.95008
   C       -5.62501        18.93666         3.12809
   C       -6.31581        19.93611         3.93268
   C       -6.48892        21.25888         3.62485
   C       -7.17839        22.17829         4.44577
   N       -7.72391        22.97648         5.06419
   C       -6.02730        21.90509         2.45757
   N       -5.69465        22.50756         1.53864
   C       -6.82038        19.27243         5.12798
   C       -6.48032        17.89037         5.06502
   C       -5.71851        17.62377         3.83624
   O       -5.24187        16.56355         3.49371
   C       -6.83396        17.01369         6.05095
   C       -7.55364        17.48766         7.16960
   C       -7.88897        18.87098         7.24604
   C       -7.51296        19.75380         6.20882
   C       -8.59966        19.33638         8.37147
   C       -8.96472        18.47790         9.37237
   C       -8.63719        17.11564         9.29432
   C       -7.94657        16.63100         8.21679
   H       -2.19844         1.80658        -0.88464
   H        0.49592        -1.92456        -2.81218
   H       -0.70714        -3.50549        -1.42217
   H       -2.44117        -3.99176         0.25743
   H       -3.78337        -2.16598         1.22222
   H       -3.40302         0.16248         0.51509
   H        1.44074         2.56815        -5.88615
   H       -2.45696         6.14241        -5.85600
   H       -0.15287         7.38559        -6.25285
   H        3.11750         3.73246        -5.36809
   H        5.30380         4.92895        -6.18533
   H        2.72711         9.12241        -6.28241
   H        0.83825         7.98545        -4.15013
   H        2.89227        11.86000        -8.04323
   H        3.04765        12.75350        -6.49139
   H       -1.68473        12.57672        -2.27813
   H       -0.06573        14.77833        -3.65333
   H       -3.44410        19.43080        -0.17625
   H       -4.47124        17.09585         1.53265
   H       -4.92176        20.14064         1.53982
   H       -6.56576        15.97026         5.97659
   H       -7.78244        20.79391         6.29861
   H       -8.85026        20.38553         8.42649
   H       -9.50857        18.84363        10.23028
   H       -8.93468        16.45254        10.09273
   H       -7.69117        15.58353         8.15164
*
