# ORCA input file
# SCF done       -213.457673375170          0.000519550441
! CAM-B3LYP def2-SVP def2/J RIJCOSX Grid4 TightSCF
%maxcore 5000
%tddft
    Mode sTDDFT
    Ethresh 5.0
    maxcore 5000
end

%pal
  nprocs 6
  end
* xyz 0 1
   C       -1.62801         1.91881        -4.90692
   C       -0.36029         1.68337        -5.37351
   C       -0.06586         0.84969        -6.47360
   N        0.24038         0.18966        -7.36114
   C        0.82106         2.24664        -4.84906
   N        1.81530         2.68809        -4.47725
   C       -2.85621         1.36933        -5.46871
   C       -3.96517         1.89076        -4.73958
   C       -5.25347         1.55791        -5.04529
   C       -5.49860         0.66800        -6.11472
   C       -4.39654         0.13879        -6.84710
   C       -3.07306         0.50291        -6.50737
   C       -4.65267        -0.74827        -7.91207
   C       -5.93506        -1.09663        -8.23984
   C       -7.01898        -0.57494        -7.51831
   C       -6.80550         0.28873        -6.47800
   C       -3.47187         2.78698        -3.68738
   O       -4.14321         3.43372        -2.90161
   C       -2.00480         2.76611        -3.78680
   C       -1.13081         3.39495        -2.94850
   C       -1.36697         4.22526        -1.83511
   S       -2.91744         4.81287        -1.32604
   C       -2.19370         5.79689        -0.09665
   C       -0.80821         5.66715        -0.08328
   C       -0.34505         4.75568        -1.03629
   C        1.09020         4.34324        -1.11853
   N        1.23419         2.88043        -0.73976
   O        2.25520         2.56686        -0.19189
   O        0.33669         2.13418        -1.03535
   C        2.01218         5.16944        -0.21712
   C        1.48238         6.58207        -0.01948
   C        0.13596         6.50914         0.70911
   N       -0.36277         7.90108         0.82985
   O       -0.11289         8.48681         1.85335
   O       -0.94064         8.37311        -0.12011
   C       -2.97549         6.56223         0.82108
   N       -4.14794         7.19939         0.51663
   C       -4.78381         7.32774        -0.77306
   C       -5.89763         6.30302        -0.96641
   C       -4.68123         7.87967         1.63650
   O       -5.69803         8.53712         1.60047
   C       -3.75117         7.58699         2.70000
   C       -2.71294         6.77948         2.17374
   C       -1.82448         6.46666         3.26882
   O       -0.82604         5.76943         3.32904
   N       -2.34710         7.15728         4.37216
   C       -1.69915         7.02914         5.65534
   C       -2.47512         6.11730         6.60203
   C       -3.50866         7.82541         4.04890
   C       -4.36326         8.63214         4.84358
   C       -4.19241         9.07990         6.11232
   C       -5.13711         9.88421         6.80484
   S       -4.75633        10.44391         8.40969
   C       -6.29453        11.23083         8.57779
   C       -7.04867        11.06593         7.41058
   C       -6.39319        10.31563         6.42411
   C       -8.31587        11.63382         7.17753
   N       -9.33293        12.09211         6.91318
   C       -6.59806        11.89649         9.78850
   C       -7.83006        12.31819        10.18154
   C       -8.00745        12.97123        11.42394
   C       -9.21471        13.28069        11.98037
   C       -9.44477        13.99109        13.22528
   C       -8.49456        14.53520        14.05152
   C       -8.78597        15.22819        15.24553
   N       -8.94863        15.80020        16.22760
   C       -7.10027        14.49353        13.84458
   N       -5.95529        14.50552        13.75263
   C      -10.88566        14.04577        13.44618
   C      -11.54008        13.39534        12.36140
   C      -10.53449        12.88769        11.41243
   O      -10.74562        12.25115        10.40344
   C      -12.89901        13.28508        12.29796
   C      -13.68362        13.82940        13.33905
   C      -13.03764        14.48049        14.42950
   C      -11.62816        14.58113        14.46610
   C      -13.82945        15.01553        15.46617
   C      -15.19331        14.91238        15.42956
   C      -15.82816        14.27115        14.35526
   C      -15.08948        13.74187        13.33192
   H       -6.07556         1.96824        -4.47784
   H       -2.26201         0.08339        -7.08092
   H       -3.81508        -1.14728        -8.46499
   H       -6.12086        -1.77657        -9.05754
   H       -8.02394        -0.86056        -7.79047
   H       -7.63618         0.69358        -5.91874
   H       -0.08482         3.23921        -3.16422
   H        1.43958         4.37673        -2.15918
   H        3.01358         5.20128        -0.64517
   H        2.08874         4.68475         0.75874
   H        1.34417         7.07623        -0.98480
   H        2.19168         7.16167         0.57228
   H        0.26284         6.12787         1.73371
   H       -4.02854         7.24141        -1.55620
   H       -5.21529         8.33297        -0.80161
   H       -5.50834         5.28830        -0.95257
   H       -6.38105         6.47280        -1.92392
   H       -6.63767         6.41266        -0.17766
   H       -1.53716         8.01914         6.08781
   H       -0.72120         6.58562         5.44544
   H       -3.48512         6.48506         6.76767
   H       -1.96161         6.05816         7.55767
   H       -2.53842         5.11716         6.18045
   H       -5.25273         8.93032         4.30401
   H       -3.30090         8.84798         6.67325
   H       -6.83448        10.10006         5.46770
   H       -5.76211        12.03115        10.46596
   H       -8.69938        12.14210         9.56609
   H       -7.10329        13.23112        11.96021
   H      -13.36832        12.78600        11.46323
   H      -11.17148        15.07845        15.30684
   H      -13.33606        15.50846        16.29100
   H      -15.79096        15.32438        16.22885
   H      -16.90540        14.19854        14.34286
   H      -15.57238        13.24702        12.50205
*
