# ORCA input file
# SCF done       -185.371892012404          0.000624507699
! CAM-B3LYP def2-SVP def2/J RIJCOSX Grid4 TightSCF
%maxcore 5000
%tddft
    Mode sTDDFT
    Ethresh 5.0
    maxcore 5000
end

%pal
  nprocs 6
  end
* xyz 0 1
   C       -5.96775        -0.31688         4.79344
   N       -6.76863         0.77777         4.79717
   C       -8.09065         0.85812         5.36573
   C       -8.04318         0.91656         6.89050
   C       -6.11422         1.90085         4.22440
   O       -6.62886         2.99413         4.12690
   C       -4.82095         1.38415         3.84809
   C       -4.76670         0.00839         4.22057
   C       -3.46018        -0.49111         3.84838
   O       -2.94185        -1.57983         3.95667
   N       -2.80357         0.62614         3.28292
   C       -1.47297         0.46164         2.75018
   C       -1.46727         0.40957         1.22400
   C       -3.60888         1.74720         3.27209
   C       -3.34251         3.06123         2.81259
   C       -2.18284         3.59346         2.34519
   C       -2.04240         4.94269         1.94769
   S       -3.39538         6.03158         1.93182
   C       -2.39821         7.33345         1.34948
   C       -1.07146         6.91985         1.18700
   C       -0.87211         5.58181         1.52443
   C        0.46933         4.90283         1.40271
   O        0.66578         4.07344         2.53571
   C        1.73845         3.17121         2.42991
   C        1.58399         5.94767         1.25189
   C        1.20776         6.99188         0.21009
   C        0.02024         7.81597         0.69760
   C       -2.91834         8.61690         1.10501
   C       -4.24981         8.92695         1.15048
   C       -4.77287        10.19819         0.84626
   C       -5.98902        10.44830         0.21344
   N       -7.00480         9.53849        -0.10334
   O       -6.88321         8.36899         0.23448
   O       -7.97720         9.97282        -0.70315
   C       -6.01135        11.81290        -0.23809
   C       -4.86901        12.43017         0.15325
   C       -4.10276        11.51964         0.95755
   C       -3.10891        11.83485         1.85666
   C       -2.50145        10.93432         2.81952
   C       -1.40440        11.51771         3.34486
   C       -1.28362        12.83956         2.77707
   N       -0.27144        13.73833         3.14070
   O        0.63523        13.31255         3.83943
   O       -0.34314        14.89361         2.74619
   C       -2.35280        13.09157         1.93708
   C       -2.58929        14.35257         1.29027
   C       -3.74477        15.03200         1.36080
   C       -3.94774        16.32788         0.73753
   C       -3.50787        16.58732        -0.56364
   C       -2.89437        15.69807        -1.57654
   O       -2.62397        14.52940        -1.51423
   O       -2.69479        16.42145        -2.70388
   C       -3.14571        17.75641        -2.55486
   C       -3.70620        17.82315        -1.17155
   C       -4.35004        18.84950        -0.50838
   C       -4.81083        18.60024         0.77126
   C       -4.63319        17.36594         1.40695
   C       -5.09436        17.16653         2.76978
   C       -6.15809        17.78079         3.31066
   C       -6.60446        17.63130         4.68141
   C       -7.95702        17.83407         5.03582
   N       -8.93322        18.03358         4.09218
   C       -8.33005        17.73556         6.37905
   C       -7.40747        17.43175         7.35542
   C       -6.07845        17.21997         7.01283
   C       -5.69217        17.32094         5.69423
   H       -6.30820        -1.25462         5.19275
   H       -8.67812        -0.00375         5.03513
   H       -8.54067         1.77318         4.97134
   H       -7.57063         0.02420         7.29559
   H       -9.05131         0.98924         7.28860
   H       -7.47743         1.78721         7.21330
   H       -1.11897        -0.49651         3.14449
   H       -0.82017         1.25241         3.12837
   H       -2.05842        -0.43684         0.88289
   H       -0.44918         0.28693         0.86350
   H       -1.88724         1.31710         0.79616
   H       -4.20922         3.70880         2.88811
   H       -1.27912         3.01280         2.28641
   H        0.45167         4.26649         0.49519
   H        1.67109         2.51707         3.29781
   H        2.70823         3.67767         2.44411
   H        1.66394         2.57181         1.51326
   H        2.51094         5.45107         0.96163
   H        1.73840         6.42564         2.22157
   H        0.94874         6.49330        -0.72690
   H        2.05671         7.64915         0.01868
   H       -0.34745         8.45536        -0.10692
   H        0.33658         8.46810         1.51812
   H       -2.20723         9.38079         0.82128
   H       -4.96589         8.12602         1.28900
   H       -6.81741        12.22818        -0.81300
   H       -4.58247        13.43555        -0.07249
   H       -2.89710         9.97576         3.08775
   H       -0.73085        11.12684         4.08296
   H       -1.72441        14.81964         0.83820
   H       -4.56711        14.64070         1.94695
   H       -3.89349        17.96265        -3.32867
   H       -2.29805        18.43631        -2.69929
   H       -4.48951        19.81375        -0.97194
   H       -5.29953        19.39563         1.31326
   H       -4.53786        16.45078         3.35647
   H       -6.74808        18.43492         2.67918
   H       -8.66500        18.33142         3.17076
   H       -9.82138        18.37290         4.42062
   H       -9.36612        17.89757         6.64197
   H       -7.72030        17.36313         8.38658
   H       -5.35067        16.98825         7.77504
   H       -4.65321        17.18906         5.43307
*
