# ORCA input file
# SCF done       -171.415908550716          0.000438149138
! CAM-B3LYP def2-SVP def2/J RIJCOSX Grid4 TightSCF
%maxcore 5000
%tddft
    Mode sTDDFT
    Ethresh 5.0
    maxcore 5000
end

%pal
  nprocs 6
  end
* xyz 0 1
   C       -0.55946         2.17392         8.27932
   N       -0.89728         3.48466         8.40442
   C       -0.98517         4.22084         9.64063
   C        0.39670         4.58633        10.17599
   C       -1.09909         4.08690         7.14398
   O       -1.41009         5.25632         7.00469
   C       -0.86475         3.01999         6.20373
   C       -0.53167         1.84626         6.95257
   C       -0.29691         0.76862         6.01297
   O        0.01295        -0.39173         6.15910
   N       -0.50188         1.36602         4.75185
   C       -0.40216         0.58968         3.54033
   C       -1.77437         0.17178         3.01672
   C       -0.84333         2.69679         4.85273
   C       -1.09758         3.52932         3.73179
   C       -1.41881         4.84164         3.86759
   C       -1.67746         5.72930         2.79307
   S       -2.01215         7.40390         3.13400
   C       -2.19121         7.78761         1.44921
   C       -1.99990         6.63737         0.67091
   C       -1.71237         5.49588         1.43117
   C       -2.07593         6.57233        -0.73090
   N       -2.12425         6.44755        -1.87062
   C       -2.47869         9.12124         1.07912
   C       -2.64289         9.58259        -0.19054
   C       -2.91355        10.93283        -0.51851
   C       -3.08369        11.43293        -1.79609
   C       -3.32498        12.82999        -1.72880
   C       -3.29631        13.17833        -0.29540
   C       -3.05315        12.04401         0.41170
   C       -3.48478        14.44322         0.27080
   N       -3.63417        15.46627         0.77282
   C       -3.54161        13.70772        -2.77102
   C       -3.76619        15.10767        -2.68926
   C       -3.93614        15.61282        -3.96152
   C       -3.82094        14.51110        -4.90138
   C       -3.58402        13.36827        -4.20555
   C       -3.41792        12.10337        -4.77956
   N       -3.28718        11.08274        -5.29008
   C       -4.18081        16.95835        -4.33242
   S       -4.39030        17.41872        -5.99942
   C       -4.62401        19.08587        -5.58025
   C       -4.53464        19.25241        -4.18845
   C       -4.28807        18.05860        -3.50127
   C       -4.66688        20.47706        -3.51285
   N       -4.76578        21.45931        -2.92678
   C       -4.86235        20.01977        -6.61131
   C       -5.07485        21.35304        -6.43032
   C       -5.31184        22.23717        -7.50747
   N       -5.51804        23.58842        -7.34794
   C       -5.46947        24.32559        -6.10746
   C       -4.03556        24.57596        -5.64827
   C       -5.73937        24.23865        -8.57329
   O       -5.94846        25.43092        -8.67113
   C       -5.66635        23.18033        -9.55840
   C       -5.40271        21.96531        -8.87216
   C       -5.33056        20.90995        -9.85328
   O       -5.12274        19.71468        -9.75760
   N       -5.55186        21.56080       -11.08150
   C       -5.60709        20.81518       -12.31533
   C       -7.04532        20.55504       -12.75713
   C       -5.75692        22.90892       -10.91803
   C       -5.99619        23.81021       -12.00739
   C       -6.21360        25.11619       -11.83339
   H       -0.37101         1.56555         9.14441
   H       -1.53347         3.62356        10.37499
   H       -1.55177         5.12967         9.42066
   H        0.98189         3.69074        10.37307
   H        0.29757         5.14946        11.09962
   H        0.92845         5.19717         9.45059
   H        0.17524        -0.30180         3.80148
   H        0.14947         1.15608         2.78445
   H       -2.28551        -0.43210         3.76229
   H       -1.65955        -0.41789         2.11141
   H       -2.39069         1.04042         2.79461
   H       -1.02016         3.08816         2.74925
   H       -1.48410         5.26520         4.86139
   H       -1.54021         4.53279         0.98461
   H       -2.56446         9.81032         1.90854
   H       -2.56350         8.89946        -1.02464
   H       -3.03792        10.85879        -2.70076
   H       -2.97599        11.98013         1.48094
   H       -3.79512        15.66785        -1.77666
   H       -3.91101        14.60736        -5.96797
   H       -4.19038        18.00298        -2.43180
   H       -4.87274        19.61894        -7.61719
   H       -5.06999        21.76830        -5.43472
   H       -6.03229        23.78985        -5.33835
   H       -5.96329        25.28079        -6.30666
   H       -3.51345        23.63896        -5.46859
   H       -4.04314        25.14948        -4.72605
   H       -3.49419        25.13780        -6.40571
   H       -5.10830        19.86276       -12.11412
   H       -5.05008        21.34659       -13.09189
   H       -7.57047        19.98725       -11.99298
   H       -7.04889        19.98154       -13.67991
   H       -7.57848        21.48890       -12.92154
   H       -5.99041        23.38627       -13.00210
   H       -6.22353        25.56117       -10.85236
   H       -6.38535        25.76795       -12.67255
*
