# ORCA input file
# SCF done       -197.354726575568          0.000520015556
! CAM-B3LYP def2-SVP def2/J RIJCOSX Grid4 TightSCF
%maxcore 5000
%tddft
    Mode sTDDFT
    Ethresh 5.0
    maxcore 5000
end

%pal
  nprocs 6
  end
* xyz 0 1
   C       -7.88368        -1.41375        -5.10342
   C       -7.28955        -2.61074        -4.79752
   C       -7.35301        -3.75282        -5.62222
   N       -7.36422        -4.70942        -6.25703
   C       -6.59421        -2.89566        -3.60232
   N       -6.05688        -3.22498        -2.64285
   C       -8.73703        -1.16553        -6.26194
   C       -9.30733         0.12465        -6.13418
   C      -10.17672         0.64925        -7.05896
   C      -10.49388        -0.13633        -8.17184
   C       -9.91454        -1.42130        -8.29641
   C       -9.03954        -1.95332        -7.35630
   S      -10.43690        -2.21890        -9.74870
   C      -11.41423        -0.83512       -10.16194
   C      -11.35382         0.17366        -9.26090
  Br      -12.42157        -0.85218       -11.74361
   C       -8.80855         0.75367        -4.89881
   O       -9.12656         1.84964        -4.47330
   C       -7.85617        -0.19820        -4.31316
   C       -6.99374         0.06235        -3.27716
   C       -6.87945         1.20969        -2.47836
   S       -7.92344         2.60382        -2.47190
   C       -7.00546         3.36191        -1.20496
   C       -5.92304         2.56147        -0.81857
   C       -5.85103         1.35954        -1.52356
   C       -4.84556         0.38394        -1.36942
   N       -4.02900        -0.41597        -1.28928
   C       -4.96735         2.99314         0.24763
   F       -5.59437         3.25763         1.41152
   F       -4.02644         2.08839         0.52737
   F       -4.31680         4.12593        -0.08708
   C       -7.32260         4.63573        -0.69227
   C       -8.41454         5.34293        -1.10252
   C       -8.81174         6.63302        -0.67948
   C       -8.10574         7.47676         0.21203
   C       -8.58978         8.79381         0.56948
   N       -7.88943         9.55149         1.39921
   C       -6.74594         9.11218         1.90705
   C       -6.27108         7.81972         1.55410
   N       -6.94392         7.04953         0.73361
   C       -5.04189         7.37162         2.10349
   N       -4.04356         7.08461         2.58637
   C       -5.99705         9.91864         2.78289
   N       -5.32707        10.51684         3.49874
   C       -9.81511         9.32960         0.05775
   C      -10.51965         8.46457        -0.83639
   C      -10.02794         7.16482        -1.19435
   N      -10.84218         6.54418        -2.04163
   S      -12.10256         7.49828        -2.35894
   N      -11.67088         8.74830        -1.43133
   C      -10.36329        10.57309         0.33947
   C       -9.93655        11.64192         1.12519
   C      -10.68677        12.82779         1.24367
   C      -10.11602        13.78930         2.03944
   C       -8.88934        13.38552         2.57359
   S       -8.47488        11.76370         2.05966
   C       -8.02085        14.09594         3.40803
   C       -8.15828        15.39330         3.92851
   C       -7.10120        15.78276         4.70742
   C       -6.08603        14.81183         4.83477
   S       -6.53002        13.37831         3.92794
   C       -4.91404        14.96529         5.55205
   C       -3.86598        14.05296         5.71430
   C       -2.68440        14.32378         6.44981
   C       -1.84977        13.20152         6.39734
   C       -0.59203        12.94700         6.93748
   C       -0.02522        11.70280         6.69065
   C        1.20129        11.14598         7.08159
   C        1.29848         9.83425         6.56340
   C        0.13009         9.56381         5.84390
   C       -0.71786        10.69659         5.89772
   C       -1.96164        10.93628         5.36013
   C       -2.53752        12.19387         5.60510
   C       -3.75249        12.72032         5.20008
   C        2.39161         8.90506         6.72395
   C        3.51064         9.13952         7.40410
   H      -10.59704         1.63410        -6.92885
   H       -8.62336        -2.93647        -7.49854
   H      -11.89184         1.09892        -9.35812
   H       -6.26168        -0.70277        -3.04090
   H       -6.66688         5.06145         0.05071
   H       -9.07854         4.89443        -1.83271
   H      -11.30990        10.74427        -0.16218
   H      -11.62916        12.94691         0.73823
   H      -10.55678        14.75122         2.23337
   H       -9.01719        16.00607         3.72260
   H       -7.02823        16.74201         5.18939
   H       -4.79287        15.92292         6.04569
   H       -2.47047        15.24605         6.95882
   H       -0.07425        13.69053         7.52716
   H        1.94406        11.64134         7.67923
   H       -0.09413         8.64672         5.33053
   H       -2.48808        10.19992         4.77084
   H       -4.47367        12.19456         4.60528
   H        2.25166         7.94923         6.23580
   H        3.69421        10.07400         7.90607
   H        4.28583         8.39755         7.48241
*
