# ORCA input file
# SCF done       -199.751660076514          0.000728077042
! CAM-B3LYP def2-SVP def2/J RIJCOSX Grid4 TightSCF
%maxcore 5000
%tddft
    Mode sTDDFT
    Ethresh 5.0
    maxcore 5000
end

%pal
  nprocs 6
  end
* xyz 0 1
   C       -8.42417         3.44173         2.74042
   C       -7.11660         3.03021         2.84499
   C       -6.53050         2.54244         4.02840
   N       -6.00586         2.14220         4.96812
   C       -6.24103         2.99163         1.74486
   N       -5.53162         2.91503         0.84312
   C       -9.44209         3.36038         3.78487
   C      -10.69923         3.70925         3.22573
   C      -11.85805         3.71426         3.96147
   C      -11.77362         3.36649         5.31476
   C      -10.51562         3.02480         5.86355
   C       -9.34235         3.01267         5.11717
   S      -10.63971         2.63461         7.55200
   C      -12.35609         2.93569         7.49942
   C      -12.81539         3.30517         6.28011
  Br      -13.38137         2.72586         9.05608
   C      -10.50827         4.05573         1.80649
   O      -11.36147         4.40209         0.99747
   C       -9.07410         3.93675         1.55676
   C       -8.49806         4.34816         0.37463
   N       -9.24016         4.72318        -0.66112
   C       -8.81499         5.24766        -1.86909
   C       -9.68227         5.92281        -2.68558
   S       -8.92139         6.53578        -4.08705
   C       -7.42001         5.85456        -3.61294
   C       -7.48513         5.19100        -2.41875
   N       -6.42486         4.51358        -1.83972
   C       -5.10017         4.88740        -1.89914
   C       -4.65771         6.12875        -2.14620
   C       -3.27002         6.53429        -2.17567
   C       -2.22286         5.62124        -2.36916
   C       -0.92490         6.07091        -2.40808
   C       -0.63705         7.43124        -2.19015
   C       -1.66428         8.34576        -2.00404
   C       -2.96651         7.89334        -2.02158
   C        0.79503         7.60927        -2.18693
   C        1.40207         6.36372        -2.43102
   C        0.35104         5.29302        -2.64514
   C        0.51203         4.12474        -1.66172
   C        0.49290         4.58527        -0.20862
   C        0.47673         4.82635        -4.11466
   C       -0.60345         3.87304        -4.60868
   C        2.76710         6.24804        -2.48943
   C        3.56973         7.38327        -2.27672
   C        2.94603         8.61062        -1.99330
   C        1.57471         8.73671        -1.96026
   C        5.00440         7.35161        -2.34522
   C        5.74716         6.36038        -2.89425
   C        7.16571         6.32899        -3.02302
   C        8.08734         7.20976        -2.40581
   C        9.50512         7.14295        -2.67460
   N       10.33707         8.00586        -2.08519
   C        9.86287         8.90798        -1.25289
   C        8.46596         8.95456        -0.95977
   N        7.63085         8.12027        -1.53077
   C        7.95904         9.90701        -0.04157
   N        7.57428        10.69465         0.69655
   C       10.75494         9.82288        -0.64685
   N       11.45158        10.58100        -0.14224
   C       10.07811         6.19094        -3.57655
   C        9.15651         5.27359        -4.13853
   C        7.74386         5.34040        -3.85644
   N        7.06870         4.38044        -4.48941
   S        8.09342         3.48331        -5.34387
   N        9.44604         4.27082        -4.95861
   C       11.45528         6.25578        -3.82811
   C       12.27075         5.57211        -4.70333
   C       13.65687         5.85965        -4.81639
   C       14.31076         5.14924        -5.77403
   C       13.46998         4.25310        -6.47161
   S       11.83158         4.32697        -5.84847
   C       13.81418         3.41438        -7.51141
   C       15.09193         3.26862        -8.11711
   C       15.12927         2.37729        -9.13396
   C       13.87252         1.74407        -9.40927
   S       12.65077         2.36359        -8.28491
   C       13.60254         0.82789       -10.35057
   H      -12.80134         3.98143         3.51140
   H       -8.40561         2.74738         5.57880
   H      -13.84565         3.52630         6.06880
   H       -7.42523         4.42051         0.27918
   H      -10.25142         4.73217        -0.47716
   H      -10.72267         6.10750        -2.50786
   H       -6.56234         5.96472        -4.24411
   H       -6.61097         3.60314        -1.44725
   H       -4.42363         4.08743        -1.63922
   H       -5.37947         6.92038        -2.29869
   H       -2.44766         4.57377        -2.49264
   H       -1.44856         9.39254        -1.84955
   H       -3.77768         8.59501        -1.88617
   H        1.45566         3.61588        -1.87011
   H       -0.29724         3.41012        -1.81745
   H        1.30520         5.28236        -0.01485
   H        0.60423         3.73248         0.45728
   H       -0.44706         5.08191         0.02239
   H        1.45217         4.34763        -4.22709
   H        0.47265         5.71709        -4.74884
   H       -0.65032         2.97525        -3.99796
   H       -0.37803         3.57338        -5.63023
   H       -1.57702         4.35549        -4.60573
   H        3.23026         5.29099        -2.67455
   H        3.56759         9.47615        -1.81367
   H        1.11517         9.69235        -1.75645
   H        5.51188         8.22424        -1.96041
   H        5.25976         5.51315        -3.35847
   H       11.96004         7.01470        -3.24073
   H       14.12189         6.59629        -4.18473
   H       15.35855         5.25089        -5.99303
   H       15.94045         3.83526        -7.77686
   H       16.00435         2.13729        -9.71128
   H       14.37330         0.47951       -11.01518
   H       12.61744         0.41633       -10.47224
*
