# ORCA input file
# SCF done       -192.540831624134          0.000666554035
! CAM-B3LYP def2-SVP def2/J RIJCOSX Grid4 TightSCF
%maxcore 5000
%tddft
    Mode sTDDFT
    Ethresh 5.0
    maxcore 5000
end

%pal
  nprocs 6
  end
* xyz 0 1
   C       -1.36731        -0.70635         3.64807
   C       -1.64649        -1.96917         3.19280
   C       -0.81306        -3.08630         3.40451
   N       -0.17686        -4.03031         3.55352
   C       -2.77642        -2.31894         2.42405
   N       -3.65540        -2.67773         1.77774
   C       -0.15962        -0.30552         4.35648
   C       -0.17733         1.10055         4.51860
   C        0.82780         1.78643         5.15557
   C        1.90478         1.04810         5.65686
   C        1.91342        -0.35747         5.49230
   C        0.89639        -1.05086         4.84828
   S        3.33347        -1.07377         6.19308
   C        3.88883         0.50327         6.68836
   C        3.05583         1.51516         6.34871
  Br        5.51523         0.66455         7.60902
   C       -1.40984         1.65634         3.92166
   O       -1.72505         2.82633         3.91162
   C       -2.17888         0.48062         3.43931
   C       -3.49967         0.47952         3.10520
   C       -4.33055         1.61781         2.83690
   C       -3.84989         2.75644         2.16843
   C       -4.68695         3.82679         1.97818
   C       -5.99605         3.80834         2.49840
   C       -6.49906         2.66448         3.10902
   C       -5.67534         1.56978         3.24261
   C       -6.58984         5.10753         2.30072
   C       -5.65972         5.92866         1.63781
   C       -4.41129         5.14481         1.29200
   C       -3.13547         5.82582         1.80564
   C       -3.14388         6.01255         3.31833
   C       -4.39229         4.98470        -0.24782
   C       -3.35463         4.01443        -0.79665
   C       -5.95787         7.24079         1.36910
   C       -7.18311         7.78082         1.79611
   C       -8.10541         6.94189         2.44163
   C       -7.82338         5.61627         2.68849
   C       -7.44159         9.17878         1.56926
   C       -8.36872         9.91480         2.22419
   C       -8.59718        11.29636         2.02557
   S       -9.70630        12.14652         3.08756
   C       -8.08323        12.19556         1.11124
   S       -6.96834        12.11985        -0.21339
   C       -7.24915        13.84464        -0.45195
   N       -8.06496        14.41062         0.34748
   C       -8.56450        13.52605         1.24762
   C       -9.46535        13.69327         2.30245
   C      -10.08595        14.86904         2.73141
   C      -10.88420        14.93267         3.84778
   C      -11.50397        16.07880         4.33278
   C      -12.24332        16.10344         5.50185
   C      -12.90498        17.20196         6.08443
   C      -13.53686        16.91731         7.26476
   C      -13.40165        15.57886         7.67229
   S      -12.45494        14.68242         6.50586
   C      -13.89492        14.96526         8.81508
   C      -14.66451        15.52733         9.85205
   C      -14.98003        14.64392        10.84318
   C      -14.47784        13.33438        10.65056
   S      -13.58349        13.27910         9.13841
   C      -14.66472        12.27854        11.50995
   C      -14.19896        10.95386        11.40871
   C      -14.47335         9.94860        12.34738
   C      -13.84977         8.75094        11.93209
   C      -13.81232         7.48804        12.48699
   C      -13.08707         6.49795        11.80912
   C      -12.86222         5.15795        12.09903
   C      -12.04477         4.59019        11.07416
   C      -11.76478         5.58200        10.14938
   C      -12.39561         6.79335        10.56531
   C      -12.42979         8.04381        10.00846
   C      -13.16147         9.04230        10.68580
   C      -13.38062        10.37114        10.38094
   C      -11.57869         3.22701        10.99172
   C      -11.84275         2.26299        11.86968
   H        0.78386         2.85885         5.26411
   H        0.94473        -2.12283         4.75434
   H        3.24263         2.54870         6.57656
   H       -4.01399        -0.47504         3.09979
   H       -2.83737         2.76918         1.80195
   H       -7.51428         2.63675         3.47531
   H       -6.04359         0.67232         3.71885
   H       -3.03825         6.79671         1.31424
   H       -2.26929         5.22229         1.53413
   H       -4.03592         6.54771         3.63806
   H       -2.27067         6.58260         3.62704
   H       -3.11386         5.04805         3.81821
   H       -4.22513         5.97343        -0.68118
   H       -5.38419         4.65002        -0.56375
   H       -2.34943         4.29293        -0.49183
   H       -3.39167         4.02488        -1.88401
   H       -3.55660         3.00035        -0.46186
   H       -5.25006         7.87977         0.86072
   H       -9.06384         7.33943         2.73766
   H       -8.54740         4.98583         3.18306
   H       -6.79701         9.67132         0.85230
   H       -8.97911         9.46229         2.99301
   H       -6.73695        14.35589        -1.24265
   H       -9.88579        15.75567         2.14583
   H      -11.03204        14.01703         4.41040
   H      -11.40074        17.00636         3.78582
   H      -12.89696        18.17284         5.62093
   H      -14.08721        17.63735         7.84372
   H      -14.96486        16.55973         9.84329
   H      -15.56024        14.89494        11.71402
   H      -15.25594        12.49863        12.39163
   H      -15.06365        10.06963        13.23720
   H      -14.32258         7.26211        13.41280
   H      -13.24091         4.63144        12.95570
   H      -11.17029         5.46959         9.26097
   H      -11.91992         8.27329         9.08339
   H      -12.99875        10.88492         9.51904
   H      -10.96549         3.00795        10.12610
   H      -12.44863         2.43134        12.74333
   H      -11.46096         1.26492        11.74174
*
