# ORCA input file
# SCF done       -183.408634276720          0.000995213086
! CAM-B3LYP def2-SVP def2/J RIJCOSX Grid4 TightSCF
%maxcore 5000
%tddft
    Mode sTDDFT
    Ethresh 5.0
    maxcore 5000
end

%pal
  nprocs 6
  end
* xyz 0 1
   C        1.69641         1.71833       -12.13161
   C        2.79435         1.00571       -11.83101
   C        3.92732         0.73856       -12.66253
   C        4.88519        -0.01964       -12.07191
   C        4.58518        -0.40563       -10.74338
   S        3.03377         0.23025       -10.25698
   C        5.36576        -1.18215        -9.89766
   C        6.61957        -1.75550       -10.16095
   C        7.12374        -2.48210        -9.11035
   C        6.29443        -2.51164        -7.98335
   S        4.84372        -1.58449        -8.27684
   C        6.53824        -3.18664        -6.78357
   C        5.69056        -3.20149        -5.70876
   C        5.91684        -3.91537        -4.52503
   C        5.07748        -3.99155        -3.41540
   C        5.54958        -4.81215        -2.40993
   C        6.77707        -5.40106        -2.70272
   S        7.34139        -4.89567        -4.27055
   C        7.50556        -6.31323        -1.91780
   C        7.13750        -6.87231        -0.69799
   C        8.05480        -7.78385        -0.21060
   C        9.16898        -7.95651        -1.02684
   S        9.04812        -6.93691        -2.43782
   C       10.24114        -8.83599        -0.80710
   C       11.34717        -8.94999        -1.59878
   C       12.37236        -9.88551        -1.38713
   C       13.55402       -10.03341        -2.11010
   C       14.35290       -11.07396        -1.67857
   C       13.81191       -11.78159        -0.60570
   S       12.28100       -11.09443        -0.13044
   C       14.31919       -12.91183         0.04631
   C       15.53136       -13.57847        -0.15227
   C       15.69174       -14.68322         0.64721
   C       14.62009       -14.92748         1.52612
   S       13.38586       -13.71170         1.28158
   C       14.49728       -16.03294         2.35019
   C       13.51718       -16.34149         3.29930
   S       13.19518       -18.03510         3.59295
   C       11.90526       -17.67545         4.71656
   C       11.77903       -16.28596         4.87122
   C       12.68781       -15.55177         4.11362
   C       12.87195       -14.07184         4.32806
   C       14.27698       -13.72987         4.30708
   N       15.38350       -13.44544         4.33357
   C       12.26966       -13.65542         5.67786
   C       10.81478       -14.09495         5.70968
   C       10.72766       -15.63091         5.73276
   C        9.42428       -16.01434         5.22515
   N        8.40406       -16.25463         4.77072
   C       11.22002       -18.76658         5.27513
   C       10.22994       -18.74233         6.22136
   C        9.56314       -19.89753         6.64626
   C        8.54997       -19.88168         7.57997
   C        7.73704       -20.99847         7.99711
   C        7.89819       -22.32010         7.65270
   C        7.06325       -23.36153         8.10231
   N        6.41899       -24.25353         8.43298
   C        8.91928       -22.83305         6.82886
   N        9.72223       -23.33465         6.17746
   C        6.69289       -20.48415         8.88113
   C        6.89121       -19.09335         9.05381
   C        8.07681       -18.67081         8.28066
   O        8.55393       -17.55056         8.26710
   C        6.06680       -18.31593         9.82844
   C        4.98664       -18.94050        10.46163
   C        4.79506       -20.32962        10.28309
   C        5.63315       -21.11716         9.50194
   S        3.39966       -20.89851        11.15022
   C        3.09825       -19.28241        11.73123
   C        3.99390       -18.36346        11.30091
  Br        1.62818       -18.96021        12.85181
   H        1.58705         2.17418       -13.09957
   H        0.89986         1.85496       -11.42369
   H        3.97840         1.12289       -13.66538
   H        5.80136        -0.31654       -12.55043
   H        7.12323        -1.63022       -11.10207
   H        8.06931        -2.99478        -9.12959
   H        7.46572        -3.74263        -6.72363
   H        4.76609        -2.64024        -5.76392
   H        4.14539        -3.45684        -3.36827
   H        5.02875        -4.98931        -1.48660
   H        6.21927        -6.62113        -0.19903
   H        7.93504        -8.32302         0.71233
   H       10.15890        -9.47330         0.06493
   H       11.45784        -8.29255        -2.45193
   H       13.80449        -9.38371        -2.93015
   H       15.29639       -11.33347        -2.12344
   H       16.26000       -13.24193        -0.86744
   H       16.55983       -15.31750         0.63408
   H       15.21607       -16.82126         2.15996
   H       12.37311       -13.50277         3.53252
   H       12.34536       -12.57289         5.79219
   H       12.82490       -14.12509         6.49355
   H       10.30047       -13.70852         4.82545
   H       10.30970       -13.69722         6.59092
   H       10.82750       -15.98314         6.76633
   H       11.53000       -19.73655         4.90193
   H        9.90429       -17.82152         6.66796
   H        9.83588       -20.83508         6.18032
   H        6.24552       -17.25782         9.93872
   H        5.44109       -22.17166         9.39679
   H        3.95800       -17.32144        11.56179
*
