# ORCA input file
# SCF done       -202.270048326716          0.000511973435
! CAM-B3LYP def2-SVP def2/J RIJCOSX Grid4 TightSCF
%maxcore 5000
%tddft
    Mode sTDDFT
    Ethresh 5.0
    maxcore 5000
end

%pal
  nprocs 6
  end
* xyz 0 1
   C       24.09291       -19.07941         1.40304
   C       23.29293       -18.13086         0.89254
   C       23.38930       -17.49185        -0.38545
   C       22.43121       -16.56259        -0.61758
   C       21.51077       -16.39332         0.44834
   S       21.90310       -17.46918         1.76876
   C       20.44589       -15.51143         0.50106
   C       20.03516       -14.59246        -0.48331
   C       18.95555       -13.83656        -0.11479
   C       18.46334       -14.12020         1.17043
   S       19.40660       -15.39625         1.90630
   C       17.41270       -13.47484         1.81303
   C       16.96866       -13.75394         3.08606
   C       15.98276       -13.02727         3.74895
   C       15.52254       -13.21706         5.05861
   C       14.60737       -12.28020         5.47461
   C       14.30972       -11.31559         4.50354
   S       15.19012       -11.64083         3.03191
   C       13.50867       -10.18004         4.62134
   C       12.86584        -9.67655         5.76118
   C       12.27261        -8.45690         5.56393
   C       12.41764        -7.94847         4.25842
   S       13.28914        -9.09614         3.26824
   C       12.03903        -6.68695         3.83198
   C       12.22264        -6.14803         2.56147
   S       12.66803        -7.12202         1.18742
   C       12.77978        -5.71873         0.14849
   C       12.48050        -4.55183         0.86433
   C       12.12782        -4.79478         2.18226
   C       11.76218        -3.70772         3.15419
   C       12.90753        -3.47071         4.10333
   O       14.07404        -3.50499         3.84394
   C       12.44948        -3.11029         5.55231
   F       11.63138        -2.04498         5.55888
   F       11.75680        -4.12260         6.10511
   F       13.46925        -2.83815         6.35897
   C       11.48095        -2.38637         2.40240
   C       12.55765        -2.12073         1.35876
   C       12.49945        -3.18240         0.26397
   C       13.14816        -5.85640        -1.19439
   C       13.17175        -7.06614        -1.84084
   C       13.63861        -7.29808        -3.13441
   S       14.57836        -6.13280        -4.01314
   C       14.84878        -7.22266        -5.35374
   C       14.16289        -8.44331        -5.13363
   C       13.48893        -8.49121        -3.88815
   C       12.74293        -9.62226        -3.53859
   C       12.65173       -10.69971        -4.39517
   C       11.79650       -11.89362        -3.99823
   C       10.34621       -11.42158        -3.81700
   C       11.80543       -13.00699        -5.04906
   C       12.32334       -12.47635        -2.67926
   C       13.34631       -10.64272        -5.61853
   C       14.08924        -9.54991        -5.98820
   C       15.67567        -6.92472        -6.42734
   C       16.37305        -5.74756        -6.58692
   C       17.29443        -5.42463        -7.58603
   C       17.84784        -6.14109        -8.63638
   C       18.85927        -5.57574        -9.50674
   C       19.26995        -4.26429        -9.58282
   C       20.27129        -3.80097       -10.45925
   N       21.07899        -3.34568       -11.13833
   C       18.76390        -3.17111        -8.85136
   N       18.42045        -2.20593        -8.32824
   C       19.37590        -6.64301       -10.36030
   C       18.64429        -7.82090       -10.08488
   C       17.64533        -7.54458        -9.03484
   O       16.83508        -8.36325        -8.63054
   C       18.88066        -9.01160       -10.72626
   C       19.89902        -9.04511       -11.68426
   C       20.63018        -7.86518       -11.94925
   C       20.38467        -6.65789       -11.30352
   S       21.84392        -8.13772       -13.16158
   C       21.36854        -9.79596       -13.29959
   C       20.35039       -10.13608       -12.48028
   H       24.92833       -19.45388         0.83850
   H       23.92829       -19.49179         2.38137
   H       24.17255       -17.75379        -1.07412
   H       22.35452       -15.98601        -1.52214
   H       20.53860       -14.50289        -1.42880
   H       18.50714       -13.07935        -0.73362
   H       16.93175       -12.67384         1.26498
   H       17.42891       -14.56790         3.63198
   H       15.88170       -14.02446         5.67216
   H       14.15995       -12.26674         6.45203
   H       12.87364       -10.19717         6.70184
   H       11.75608        -7.90246         6.32739
   H       11.61221        -6.04643         4.59133
   H       10.87159        -3.98639         3.72732
   H       11.41902        -1.56133         3.11317
   H       10.51054        -2.48339         1.91198
   H       12.41175        -1.13149         0.92335
   H       13.54134        -2.14022         1.83148
   H       13.35743        -3.08038        -0.40236
   H       11.59637        -3.04478        -0.33999
   H       13.40910        -4.96103        -1.74254
   H       12.79444        -7.92743        -1.30432
   H       12.22764        -9.62889        -2.59125
   H        9.97583       -10.98024        -4.74005
   H       10.26528       -10.67878        -3.02824
   H        9.70868       -12.26407        -3.55786
   H       11.40587       -12.65553        -5.99747
   H       11.17978       -13.82920        -4.70765
   H       12.81012       -13.39341        -5.20404
   H       12.27335       -11.75018        -1.87285
   H       13.35916       -12.78897        -2.79308
   H       11.73162       -13.34267        -2.39220
   H       13.29835       -11.47546        -6.30010
   H       14.60715        -9.53751        -6.93431
   H       15.79754        -7.70125        -7.16828
   H       16.20569        -4.97147        -5.84722
   H       17.68498        -4.41928        -7.48775
   H       18.29939        -9.89063       -10.49353
   H       20.97465        -5.78971       -11.54313
   H       21.89059       -10.42166       -13.99721
   H       19.92255       -11.12119       -12.42835
*
