# ORCA input file
# SCF done       -215.083374015259          0.000788630103
! CAM-B3LYP def2-SVP def2/J RIJCOSX Grid4 TightSCF
%maxcore 5000
%tddft
    Mode sTDDFT
    Ethresh 5.0
    maxcore 5000
end

%pal
  nprocs 6
  end
* xyz 0 1
   C       -3.29870         2.25735         1.30923
   S       -2.35300         3.61925         1.71990
   C       -1.20382         3.24733         0.44957
   C       -1.57802         2.11373        -0.23750
   C       -2.76869         1.54375         0.27602
   C       -3.27421         0.23034        -0.22594
   C       -2.04739        -0.61089        -0.61600
   C       -1.17285        -0.71792         0.52980
   N       -0.47791        -0.74173         1.43674
   C       -1.28546         0.10121        -1.75766
   C       -2.16847         0.20931        -2.89977
   N       -2.88059         0.27440        -3.79029
   C       -0.77236         1.49034        -1.32984
   C       -0.04829         4.08586         0.34036
   C        0.46776         4.79199        -0.72887
   N       -0.01447         4.85902        -2.04363
   O        0.55748         5.60684        -2.81690
   O       -0.99041         4.18277        -2.33967
   C        1.56024         5.62334        -0.27044
   C        1.68638         5.47849         1.06787
   C        0.73254         4.49376         1.51497
   C        0.69829         3.87578         2.74820
   C        0.35367         2.51127         3.01159
   C        0.74478         2.19636         4.27873
   C        1.27417         3.36826         4.90641
   N        1.65716         3.41068         6.26192
   O        1.86179         4.49823         6.77314
   O        1.75537         2.34582         6.84437
   C        1.24671         4.42910         4.00381
   C        1.54427         5.77940         4.25951
   C        0.95151         6.82523         3.60220
   C        1.31046         8.16638         3.81698
   N        0.61376         9.24240         3.32587
   C       -0.63193         9.19613         2.59777
   C       -1.81413         8.87788         3.50875
   C        1.22169        10.46973         3.66150
   O        0.79317        11.54983         3.32896
   C        2.39859        10.07839         4.41747
   C        2.43254         8.67775         4.49183
   C        3.65878         8.30088         5.16894
   O        4.12923         7.22314         5.45195
   N        4.30241         9.53137         5.44377
   C        5.45229         9.55821         6.32171
   C        5.11843        10.20008         7.66453
   C        3.56370        10.59565         5.00156
   C        3.88124        11.97525         5.04989
   C        5.11947        12.52974         5.01994
   C        5.36767        13.93126         5.05319
   C        4.78828        14.90446         5.85850
   N        3.89239        14.72786         6.93029
   O        3.49899        15.73106         7.49717
   O        3.59373        13.59184         7.26501
   C        5.40078        16.17656         5.58246
   C        6.37713        15.99806         4.65771
   C        6.40973        14.60909         4.27701
   C        7.14444        14.03633         3.25694
   C        6.73936        12.91940         2.46682
   C        7.55024        12.83393         1.37346
   C        8.56307        13.84100         1.46299
   N        9.59031        13.96258         0.51335
   O        9.58417        13.17543        -0.41727
   O       10.42516        14.84319         0.65722
   C        8.37570        14.57745         2.63218
   C        9.26232        15.52630         3.17190
   C        9.32988        15.89115         4.48651
   C       10.19604        16.88549         4.98390
   S       11.32660        17.73172         3.95378
   C       11.87866        18.65958         5.27121
   C       11.23870        18.36454         6.44851
   C       10.27477        17.35327         6.29274
   C        9.43771        16.84855         7.42502
   C        9.46616        17.83355         8.60492
   C        8.68577        19.00578         8.27434
   N        8.08156        19.93207         7.98939
   C       10.91918        18.25698         8.92242
   C       11.71719        17.07587         9.16608
   N       12.34319        16.13592         9.33726
   C       11.50799        19.05521         7.74899
   H       -4.19640         2.04882         1.85681
   H       -3.90960         0.36676        -1.10579
   H       -3.86066        -0.27109         0.54627
   H       -2.35068        -1.61378        -0.93605
   H       -0.43188        -0.51439        -2.06770
   H       -0.79734         2.16376        -2.19487
   H        0.26946         1.41412        -1.00437
   H        2.14211         6.23977        -0.92842
   H        2.43786         5.92058         1.69138
   H       -0.02295         1.81607         2.28645
   H        0.67595         1.23941         4.76041
   H        2.22510         5.98301         5.07870
   H        0.14400         6.62492         2.91144
   H       -0.55431         8.46286         1.78939
   H       -0.76039        10.18976         2.15974
   H       -1.68960         7.91001         3.98934
   H       -2.73067         8.86328         2.92604
   H       -1.90528         9.63863         4.27987
   H        6.28829        10.06931         5.83922
   H        5.73160         8.51022         6.46640
   H        4.76530        11.22127         7.54045
   H        6.00389        10.20750         8.29371
   H        4.34293         9.62779         8.16739
   H        3.01374        12.61953         4.99561
   H        5.99007        11.90366         4.88030
   H        5.10426        17.09188         6.05844
   H        6.96573        16.76769         4.19825
   H        5.84852        12.34533         2.63144
   H        7.47153        12.14360         0.55469
   H        9.99116        15.93659         2.48277
   H        8.70978        15.38751         5.21525
   H       12.65218        19.38749         5.12259
   H        9.82775        15.88146         7.76104
   H        8.40476        16.69879         7.09975
   H        9.01497        17.36158         9.48587
   H       10.93716        18.87190         9.83018
   H       12.58348        19.19052         7.88694
   H       11.04772        20.04844         7.73025
*
