# ORCA input file
# SCF done       -202.232618819664          0.000723368189
! CAM-B3LYP def2-SVP def2/J RIJCOSX Grid4 TightSCF
%maxcore 5000
%tddft
    Mode sTDDFT
    Ethresh 5.0
    maxcore 5000
end

%pal
  nprocs 6
  end
* xyz 0 1
   C        3.80464         3.39019         2.30721
   C        3.52004         4.32985         3.26002
   C        4.48491         4.88428         4.12833
   N        5.22690         5.36637         4.85834
   C        2.22241         4.80666         3.52836
   N        1.17718         5.21251         3.77511
   C        5.09489         2.73921         2.12111
   C        4.89862         1.53140         1.38854
   C        5.93789         0.69808         1.08677
   C        7.24274         1.04723         1.50019
   C        7.44792         2.26247         2.21691
   C        6.35273         3.10202         2.52266
   C        8.75712         2.60443         2.61265
   C        9.81351         1.78614         2.31827
   C        9.61037         0.58936         1.61462
   C        8.35258         0.22737         1.21502
   C        3.47740         1.39999         1.03678
   O        2.91904         0.48736         0.47772
   C        2.84745         2.69458         1.46454
   C        1.63503         3.01277         0.96131
   C        0.94766         4.27786         0.91716
   C        1.58733         5.52088         0.80865
   F        2.92628         5.57341         0.73628
   C        0.87388         6.69671         0.72673
   F        1.55308         7.85158         0.61389
   C       -0.53336         6.74290         0.75108
   C       -1.16942         5.49210         0.83962
   C       -0.45452         4.31231         0.90111
   F       -1.12347         3.15580         0.97816
   F       -2.50821         5.41281         0.85916
   C       -1.17569         8.02134         0.67968
   C       -2.50630         8.27512         0.60440
   C       -3.06677         9.56943         0.52700
   S       -4.78151         9.74022         0.23475
   C       -4.74275        11.47973         0.20360
   C       -3.43702        11.92060         0.44173
   C       -2.51331        10.84386         0.61967
   N       -1.28843        11.37506         0.86021
   C       -1.40202        12.75110         0.84691
   C       -0.29112        13.57682         1.07722
   N        0.62176        14.24347         1.26975
   C       -2.70330        13.12197         0.58908
   C       -5.93903        12.18679        -0.05823
   C       -6.02245        13.53164        -0.20125
   C       -7.20156        14.27256        -0.48616
   N       -8.47577        13.75717        -0.62489
   C       -9.36568        14.73682        -0.90542
   C       -8.67011        15.93454        -0.95977
   C       -7.31406        15.63109        -0.69175
   S       -6.38479        17.14750        -0.75253
   O       -5.88011        17.48566         0.54645
   O       -5.46534        17.13307        -1.85304
   C       -7.87255        18.12371        -1.15749
   C       -8.95790        17.30996        -1.21111
   C       -7.71910        19.51152        -1.35329
   C       -8.72980        20.33298        -1.76432
   C       -8.69415        21.71936        -2.04030
   C       -7.66890        22.61070        -2.33552
   N       -6.26891        22.48418        -2.22936
   O       -5.80025        21.64398        -1.48164
   O       -5.60041        23.25665        -2.89308
   C       -8.23331        23.82194        -2.87741
   C       -9.58229        23.70819        -2.93390
   C       -9.95265        22.44559        -2.36071
   C      -11.21511        22.06391        -1.97581
   C      -11.53499        21.21640        -0.85107
   C      -12.86383        21.29583        -0.61111
   C      -13.46838        22.12582        -1.62916
   N      -14.85993        22.33374        -1.69584
   O      -15.30841        23.02406        -2.59545
   O      -15.54159        21.80593        -0.83473
   C      -12.49136        22.60021        -2.48024
   C      -12.69619        23.32261        -3.70499
   C      -11.94184        23.19549        -4.79802
   H        5.76689        -0.21504         0.53628
   H        6.53681         4.02248         3.05422
   H        8.90817         3.52522         3.15642
   H       10.81231         2.05654         2.62621
   H       10.45561        -0.04371         1.39011
   H        8.19019        -0.69245         0.67262
   H        1.11381         2.19264         0.47453
   H       -0.48868         8.85392         0.66033
   H       -3.22057         7.46707         0.57636
   H       -0.43408        10.88185         1.05893
   H       -3.05552        14.13141         0.52885
   H       -6.82147        11.56838        -0.16265
   H       -5.13702        14.14075        -0.11897
   H       -8.70878        12.78236        -0.52133
   H      -10.40766        14.52949        -1.04913
   H       -9.96477        17.64400        -1.41005
   H       -6.73132        19.90248        -1.15316
   H       -9.69778        19.87742        -1.92840
   H       -7.63362        24.66371        -3.16887
   H      -10.27591        24.46835        -3.23287
   H      -10.80726        20.73727        -0.22538
   H      -13.42057        20.84168         0.18631
   H      -13.58649        23.93765        -3.73276
   H      -11.10178        22.52201        -4.84306
   H      -12.16629        23.74678        -5.69431
*
