# ORCA input file
# SCF done       -230.963837859642          0.000756360231
! CAM-B3LYP def2-SVP def2/J RIJCOSX Grid4 TightSCF
%maxcore 5000
%tddft
    Mode sTDDFT
    Ethresh 5.0
    maxcore 5000
end

%pal
  nprocs 6
  end
* xyz 0 1
   C        6.55632         3.62725        -5.30578
   C        5.83835         2.53243        -5.69554
   C        6.40148         1.26345        -5.95013
   N        6.80711         0.21247        -6.16735
   C        4.43555         2.52797        -5.85470
   N        3.29479         2.46533        -5.95975
   C        7.98756         3.68102        -5.03800
   C        8.33064         4.98845        -4.57823
   C        9.61173         5.32008        -4.23883
   C       10.62793         4.34548        -4.34671
   C       10.29489         3.03854        -4.80858
   C        8.96094         2.72264        -5.15183
   C       11.31846         2.07457        -4.91360
   C       12.60863         2.38463        -4.57922
   C       12.93518         3.67134        -4.12471
   C       11.96609         4.63093        -4.01070
   C        7.12840         5.82838        -4.55900
   O        7.01487         6.98949        -4.22831
   C        6.02495         4.95694        -5.04828
   C        4.79531         5.46731        -5.26143
   C        4.50583         6.86624        -5.00820
   C        4.46080         7.79986        -6.01275
   N        4.72919         7.49577        -7.35328
   O        4.97865         6.32395        -7.61543
   O        4.70138         8.39400        -8.17085
   C        4.20591         9.11328        -5.46122
   C        4.04326         8.97366        -4.13054
   C        4.17654         7.57371        -3.76857
   C        4.03913         7.00335        -2.52512
   C        4.53476         5.71484        -2.13132
   C        4.59199         5.65773        -0.77555
   C        4.04482         6.86777        -0.23524
   N        3.90612         7.07873         1.14417
   O        3.36592         8.10563         1.53605
   O        4.34636         6.21982         1.88927
   C        3.61258         7.68454        -1.28322
   C        2.79398         8.81992        -1.13930
   C        1.91084         9.25566        -2.09037
   C        1.00870        10.33319        -2.03431
   N        0.77195        11.27131        -1.05454
   C        1.46044        11.46025         0.20283
   C        2.84198        12.07897         0.00905
   C       -0.25778        12.16207        -1.42249
   O       -0.65626        13.06833        -0.72156
   C       -0.66496        11.71809        -2.73839
   C        0.11935        10.61201        -3.08467
   C       -0.30249        10.16111        -4.39328
   O        0.08225         9.26013        -5.10374
   N       -1.36092        11.03890        -4.74381
   C       -1.98171        10.91324        -6.04140
   C       -1.51126        11.99717        -7.00777
   C       -1.58638        11.97409        -3.76529
   C       -2.54515        13.00600        -3.64498
   C       -3.57461        13.33108        -4.47360
   C       -4.54481        14.34293        -4.26761
   S       -5.66317        14.60892        -5.57762
   C       -6.51762        15.82782        -4.69127
   C       -5.91679        16.04095        -3.45402
   C       -4.81531        15.20589        -3.20490
   C       -4.03060        15.27531        -1.93371
   C       -4.68631        16.18198        -0.89438
   C       -5.17654        17.46649        -1.54746
   C       -6.32865        17.10652        -2.48779
   N       -6.73935        18.33292        -3.20295
   O       -7.75576        18.87477        -2.83532
   O       -6.02467        18.72720        -4.09186
   C       -7.57766        16.49007        -5.37748
   C       -8.74824        16.97271        -4.88312
   C       -9.71692        17.78711        -5.60659
   C       -9.58441        18.28069        -6.87609
   C      -10.55180        19.08818        -7.51381
   N      -11.29776        19.73891        -8.09395
   C       -8.49077        18.05626        -7.73992
   N       -7.64625        17.91299        -8.50445
   C      -10.84156        18.02875        -4.71320
   C      -10.60355        17.35559        -3.48064
   C       -9.31397        16.66397        -3.54352
   O       -8.83224        15.92228        -2.70871
   C      -11.49089        17.40659        -2.44404
   C      -12.68025        18.15268        -2.59336
   C      -12.92806        18.82901        -3.82322
   C      -11.99201        18.75475        -4.87946
   C      -14.11928        19.57027        -3.96207
   C      -15.02252        19.64211        -2.93662
   C      -14.77706        18.97651        -1.72615
   C      -13.63076        18.24793        -1.55798
   H        9.84620         6.31593        -3.89307
   H        8.74059         1.72613        -5.50074
   H       11.06247         1.08547        -5.26366
   H       13.38553         1.63974        -4.66344
   H       13.95846         3.89836        -3.86587
   H       12.21138         5.62321        -3.66164
   H        3.99839         4.87107        -5.68877
   H        4.18742        10.01051        -6.04833
   H        3.89673         9.76618        -3.42497
   H        4.87780         4.95903        -2.80752
   H        4.96373         4.85394        -0.16832
   H        2.80871         9.26737        -0.15746
   H        1.82755         8.69604        -3.01402
   H        1.51974        10.51417         0.74510
   H        0.83365        12.14763         0.77874
   H        3.46647        11.46196        -0.63248
   H        3.33120        12.18093         0.97318
   H        2.74953        13.06430        -0.44180
   H       -3.06926        10.91485        -5.93274
   H       -1.67497         9.93336        -6.41978
   H       -1.72589        12.99204        -6.62430
   H       -2.00974        11.87538        -7.96516
   H       -0.43883        11.91173        -7.16375
   H       -2.39852        13.56837        -2.73675
   H       -3.70747        12.79320        -5.40056
   H       -3.03018        15.65522        -2.16360
   H       -3.91543        14.27437        -1.51333
   H       -3.96363        16.40952        -0.11118
   H       -5.53268        15.66891        -0.43443
   H       -4.37040        17.93185        -2.11976
   H       -5.52700        18.17516        -0.79549
   H       -7.19736        16.77201        -1.90464
   H       -7.41116        16.57262        -6.44484
   H      -11.28457        16.88861        -1.51929
   H      -12.21048        19.27838        -5.79635
   H      -14.30356        20.08174        -4.89532
   H      -15.93144        20.21310        -3.05231
   H      -15.50053        19.04447        -0.92758
   H      -13.43640        17.73385        -0.62807
*
