# ORCA input file
# SCF done       -227.199808737823          0.000660270602
! CAM-B3LYP def2-SVP def2/J RIJCOSX Grid4 TightSCF
%maxcore 5000
%tddft
    Mode sTDDFT
    Ethresh 5.0
    maxcore 5000
end

%pal
  nprocs 6
  end
* xyz 0 1
   C        3.40301         6.17434         2.02616
   C        2.92247         7.43712         1.80845
   C        3.01012         8.48071         2.75511
   N        3.05912         9.36357         3.48596
   C        2.35085         7.86575         0.59701
   N        1.91358         8.29096        -0.37706
   C        4.17514         5.73648         3.17786
   C        4.86995         4.53711         2.83708
   C        5.68983         3.90684         3.72880
   C        5.84707         4.45049         5.02329
   C        5.14004         5.63758         5.37521
   C        4.30219         6.27285         4.43128
   C        5.29556         6.15981         6.67561
   C        6.11158         5.54367         7.58469
   C        6.80942         4.37732         7.23636
   C        6.68033         3.84284         5.98317
   C        4.51650         4.13977         1.46619
   O        4.94960         3.22742         0.80285
   C        3.43077         5.08590         1.06397
   C        2.59074         4.74999         0.06282
   C        1.31418         5.31362        -0.25993
   C        0.28162         5.67034         0.60025
   N        0.18387         5.48788         1.98898
   O       -0.87430         5.78172         2.51744
   O        1.14797         5.05136         2.60551
   C       -0.82350         6.18764        -0.16534
   C       -0.45643         6.22870        -1.46555
   C        0.87208         5.67987        -1.59975
   C        1.55383         5.54656        -2.79841
   C        2.51651         4.57285        -3.17643
   C        2.63820         4.56531        -4.54120
   C        1.82872         5.59689        -5.09293
   N        1.77487         5.88507        -6.45700
   O        1.03800         6.79244        -6.84538
   O        2.45740         5.21069        -7.20905
   C        1.20273         6.28370        -4.03556
   C        0.59170         7.52604        -4.16334
   C        0.36080         8.46765        -3.18080
   C       -0.25730         9.68454        -3.45361
   S       -0.46939        10.86715        -2.17593
   C       -1.29524        12.00890        -3.19579
   C       -1.38463        11.50119        -4.50590
   C       -0.80635        10.20747        -4.63976
   N       -0.92912         9.81808        -5.93052
   C       -1.55297        10.82602        -6.62898
   C       -1.82635        10.73503        -8.00277
   N       -2.06694        10.68967        -9.12273
   C       -1.85014        11.87784        -5.78463
   C       -1.74501        13.22301        -2.64321
   C       -2.56529        14.09429        -3.29671
   C       -3.03858        15.34532        -2.83311
   S       -4.41687        16.03059        -3.63734
   C       -4.40735        17.44539        -2.63123
   C       -3.36078        17.37414        -1.71150
   C       -2.58878        16.20877        -1.83449
   C       -1.37831        15.94589        -0.98722
   F       -1.66313        14.99072        -0.03455
   C       -0.92077        17.24207        -0.31159
   F        0.10312        16.98701         0.55889
   C       -2.08503        17.94700         0.38274
   F       -2.75608        17.11353         1.23449
   C       -3.06528        18.43413        -0.69051
   F       -2.48732        19.52711        -1.31356
   C       -5.42089        18.41000        -2.86535
   C       -5.53758        19.65191        -2.32697
   C       -6.63571        20.48616        -2.65188
   C       -6.87112        21.70092        -2.07813
   C       -7.93678        22.63312        -2.40655
   C       -8.97983        22.41841        -3.26927
   C       -9.99172        23.36508        -3.53804
   N      -10.84428        24.08682        -3.80185
   C       -9.21255        21.23314        -3.99767
   N       -9.47099        20.30315        -4.61989
   C       -7.71245        23.85067        -1.63628
   C       -6.57443        23.66120        -0.80015
   C       -6.03346        22.30964        -1.00601
   O       -5.11387        21.79392        -0.40551
   C       -6.12086        24.64087         0.03594
   C       -6.79329        25.88241         0.07123
   C       -7.93263        26.08081        -0.76175
   C       -8.38169        25.04631        -1.61384
   C       -8.59628        27.32393        -0.71961
   C       -8.15574        28.32468         0.10313
   C       -7.03300        28.12879         0.92142
   C       -6.36667        26.93341         0.90656
   H        6.20873         3.00082         3.45281
   H        3.76337         7.15943         4.72689
   H        4.75767         7.05866         6.93840
   H        6.22391         5.95130         8.57812
   H        7.44841         3.90367         7.96649
   H        7.21402         2.94424         5.71022
   H        2.90993         3.90063        -0.53059
   H       -1.76143         6.47118         0.27078
   H       -1.07159         6.52628        -2.29152
   H        2.99211         3.87032        -2.52307
   H        3.23925         3.89870        -5.13132
   H        0.38581         7.80498        -5.18537
   H        0.70719         8.30307        -2.16984
   H       -0.59071         8.96849        -6.35964
   H       -2.32642        12.78884        -6.08398
   H       -1.44932        13.40407        -1.62207
   H       -2.96065        13.79753        -4.25757
   H       -0.55502        15.53145        -1.58650
   H       -0.52081        17.92443        -1.07500
   H       -1.71860        18.79238         0.97781
   H       -3.98308        18.79046        -0.20625
   H       -6.18220        18.09226        -3.56979
   H       -4.80111        20.05977        -1.65669
   H       -7.31326        20.12114        -3.41287
   H       -5.25575        24.47095         0.65957
   H       -9.24518        25.23035        -2.23287
   H       -9.46024        27.46993        -1.35113
   H       -8.67008        29.27354         0.12764
   H       -6.69873        28.92983         1.56349
   H       -5.50201        26.77671         1.53463
*
