# ORCA input file
# SCF done       -230.002154273073          0.000545623798
! CAM-B3LYP def2-SVP def2/J RIJCOSX Grid4 TightSCF
%maxcore 5000
%tddft
    Mode sTDDFT
    Ethresh 5.0
    maxcore 5000
end

%pal
  nprocs 6
  end
* xyz 0 1
   C       -4.89184        -5.10916         8.05561
   C       -5.68119        -6.00985         8.71448
   F       -5.97863        -5.82587        10.00474
   C       -6.19165        -7.14197         8.04524
   F       -6.96131        -8.00536         8.71615
   C       -5.90462        -7.35767         6.72627
   C       -5.09267        -6.44832         6.02016
   C       -4.57775        -5.30238         6.69527
   C       -3.76313        -4.37590         6.00638
   C       -3.47042        -4.58953         4.68467
   C       -3.97991        -5.74302         4.01906
   C       -4.77349        -6.65283         4.65991
   C       -3.49067        -5.76783         2.63236
   O       -3.69952        -6.60786         1.78346
   C       -2.61200        -4.57276         2.50360
   C       -2.67964        -3.81183         3.74027
   C       -2.16947        -2.55966         3.93450
   C       -1.54139        -1.81368         2.91279
   N       -1.07377        -1.16179         2.09274
   C       -2.26528        -1.84561         5.14853
   N       -2.31494        -1.23183         6.11606
   C       -1.77198        -4.40944         1.45634
   C       -1.82892        -5.24324         0.29013
   C       -0.83826        -6.08978        -0.14866
   N        0.41223        -6.24141         0.48150
   O        1.23049        -6.96821        -0.04307
   O        0.58856        -5.62249         1.52004
   C       -1.31591        -6.85934        -1.27144
   C       -2.61092        -6.52390        -1.49057
   C       -2.99637        -5.49146        -0.55994
   C       -4.15603        -4.75069        -0.54260
   C       -4.29551        -3.40964        -0.07809
   C       -5.52124        -2.95143        -0.45691
   C       -6.24197        -3.99745        -1.12271
   N       -7.55560        -3.76693        -1.56947
   O       -8.12780        -2.79169        -1.11690
   O       -8.05183        -4.52339        -2.39088
   C       -5.45015        -5.15243        -1.14682
   C       -5.72037        -6.51310        -1.36386
   C       -6.79684        -7.07848        -2.00600
   C       -7.02776        -8.46471        -2.13005
   C       -6.24347        -9.46687        -1.56845
   C       -6.68705       -10.79261        -1.76912
   C       -7.81675       -10.94842        -2.54268
  Si       -8.48194        -9.24546        -3.02268
   C       -8.46647       -12.19696        -2.74887
   C       -8.95903       -13.05368        -1.78616
   N       -8.93001       -12.89160        -0.38534
   O       -8.37350       -11.91171         0.08163
   O       -9.49250       -13.74096         0.27880
   C       -9.72210       -14.10419        -2.41981
   C       -9.69232       -13.92075        -3.76111
   C       -8.86765       -12.78114        -4.05703
   C       -8.30953       -12.42537        -5.25957
   C       -7.22211       -11.48892        -5.44092
   C       -6.87221       -11.46330        -6.74243
   C       -7.72318       -12.38707        -7.46335
   N       -7.60061       -12.55889        -8.85561
   O       -6.62684       -12.05104        -9.38756
   O       -8.44298       -13.21038        -9.44599
   C       -8.59105       -13.00467        -6.58884
   C       -9.59553       -14.00868        -6.84309
   C       -9.44922       -15.15400        -7.53507
   C       -8.27066       -15.61722        -8.21604
   C       -6.96900       -15.46776        -7.88760
   C       -5.92108       -15.55130        -8.95523
   O       -5.97296       -16.17950        -9.97891
   C       -4.86089       -14.63113        -8.48610
   C       -3.78808       -14.14076        -9.17224
   C       -2.93322       -13.21305        -8.53553
   C       -3.20052       -12.81630        -7.19203
   C       -2.35036       -11.87890        -6.57109
   C       -1.28339       -11.36132        -7.24947
   C       -1.01622       -11.75769        -8.57625
   C       -1.82264       -12.66469        -9.20583
   F        0.03626       -11.23484        -9.21408
   F       -0.48259       -10.46733        -6.65695
   C       -4.31119       -13.34755        -6.50143
   C       -5.13335       -14.23548        -7.14359
   C       -6.34721       -14.90434        -6.70162
   C       -6.75661       -15.11489        -5.41424
   C       -7.81994       -15.99653        -5.12729
   N       -8.65378       -16.74581        -4.88606
   C       -6.17591       -14.50392        -4.28771
   N       -5.77818       -13.96511        -3.35482
   H       -4.51066        -4.24826         8.58228
   H       -6.30213        -8.22885         6.22956
   H       -3.38186        -3.52189         6.54298
   H       -5.14973        -7.51884         4.13680
   H       -0.96401        -3.68863         1.50214
   H       -0.71317        -7.56931        -1.80485
   H       -3.22546        -6.86853        -2.29975
   H       -3.51566        -2.83248         0.38064
   H       -5.92301        -1.96614        -0.30953
   H       -4.97456        -7.17507        -0.94616
   H       -7.52102        -6.42963        -2.47639
   H       -5.34807        -9.28035        -0.99607
   H       -6.13191       -11.63412        -1.38492
   H       -9.76675        -8.99858        -2.37686
   H       -8.50936        -9.01167        -4.46388
   H      -10.21767       -14.88492        -1.87471
   H      -10.13532       -14.57285        -4.48469
   H       -6.74524       -10.96074        -4.64068
   H       -6.10396       -10.88362        -7.21690
   H      -10.56602       -13.79136        -6.41540
   H      -10.32536       -15.77128        -7.68022
   H       -8.45774       -16.09076        -9.17503
   H       -3.60179       -14.44499       -10.19039
   H       -2.53859       -11.56859        -5.55515
   H       -1.60678       -12.95437       -10.22211
   H       -4.50620       -13.02590        -5.49027
*
