# ORCA input file
# SCF done       -220.568701869540          0.000710551589
! CAM-B3LYP def2-SVP def2/J RIJCOSX Grid4 TightSCF
%maxcore 5000
%tddft
    Mode sTDDFT
    Ethresh 5.0
    maxcore 5000
end

%pal
  nprocs 6
  end
* xyz 0 1
   C       -1.22459        -1.68721         6.14421
   C       -1.95729        -1.41551         7.26521
   F       -1.44854        -0.64034         8.23060
   C       -3.25456        -1.94568         7.42097
   F       -3.94879        -1.66357         8.53064
   C       -3.80107        -2.73983         6.45239
   C       -3.07087        -3.03861         5.28546
   C       -1.75925        -2.50314         5.12640
   C       -1.00921        -2.78796         3.96328
   C       -1.55483        -3.58275         2.98852
   C       -2.86223        -4.11771         3.15801
   C       -3.61008        -3.85946         4.27096
   C       -3.22207        -4.93985         1.98563
   O       -4.27382        -5.50972         1.80369
   C       -2.00380        -4.94994         1.12565
   C       -1.03093        -4.03359         1.70520
   C        0.12357        -3.60382         1.11225
   C        1.01932        -2.68614         1.70219
   N        1.78389        -1.94853         2.13564
   C        0.55011        -3.98521        -0.17889
   N        0.94388        -4.23484        -1.22753
   C       -1.78607        -5.82196         0.11214
   C       -2.77038        -6.74908        -0.41089
   C       -4.06310        -6.36508        -0.79615
   C       -4.40873        -4.92407        -1.04139
   C       -4.54403        -4.66243        -2.54358
   C       -4.99010        -7.36628        -1.10731
   C       -4.61069        -8.70664        -1.09783
   C       -3.30660        -9.06779        -0.80967
   C       -2.39090        -8.09491        -0.46930
   C       -6.40276        -7.04546        -1.31692
   C       -7.17600        -6.47420        -0.35623
   C       -8.53819        -6.41121        -0.81703
   O       -9.47567        -6.05256         0.06497
   C      -10.82451        -6.42885        -0.09894
   C       -8.60414        -6.92141        -2.11143
   C       -7.24737        -7.31494        -2.48382
   C       -6.79225        -7.64102        -3.73518
   C       -5.44970        -7.96240        -4.12233
   C       -5.42994        -8.19594        -5.46495
   O       -4.33193        -8.53057        -6.15192
   C       -4.45476        -8.75944        -7.53984
   C       -6.78404        -8.00004        -5.99576
   C       -7.58766        -7.67208        -4.97418
   C       -9.76687        -7.02668        -2.93375
   C      -10.66529        -6.01620        -3.09173
   C      -11.86705        -6.10892        -3.83184
   C      -12.49703        -7.22730        -4.34757
   C      -13.71742        -6.84326        -4.94612
   C      -13.79956        -5.37022        -4.81165
   C      -12.69722        -4.95220        -4.14186
   C      -14.80611        -4.52970        -5.29675
   N      -15.60543        -3.80073        -5.68459
   C      -14.69902        -7.65919        -5.47591
   C      -15.98501        -7.27513        -5.93509
   C      -16.70966        -8.40662        -6.27259
   C      -15.85222        -9.55802        -6.05705
   C      -14.64948        -9.12466        -5.58922
   C      -13.55435        -9.94258        -5.29482
   N      -12.66317       -10.63204        -5.06691
   C      -18.05934        -8.40881        -6.68877
   C      -18.82636        -9.52071        -6.87812
   C      -20.19150        -9.43089        -7.20712
   C      -21.12339       -10.43220        -7.23376
   C      -22.40582       -10.21106        -7.94916
   O      -22.83442        -9.15694        -8.36148
   C      -23.01203       -11.55124        -8.08989
   C      -24.15082       -11.91171        -8.74947
   C      -24.52935       -13.27288        -8.77286
   C      -23.70930       -14.23633        -8.11757
   C      -24.08791       -15.59343        -8.14984
   C      -25.22901       -15.97490        -8.79785
   C      -26.04043       -15.02083        -9.44342
   C      -25.69897       -13.69756        -9.43250
   F      -27.15415       -15.42378       -10.07146
   F      -25.58843       -17.26571        -8.82538
   C      -22.53720       -13.83131        -7.43797
   C      -22.19794       -12.50515        -7.41550
   C      -21.09457       -11.79701        -6.76446
   C      -20.33710       -12.30718        -5.73982
   C      -19.48452       -11.55047        -4.90930
   N      -18.81561       -10.99122        -4.16217
   C      -20.40394       -13.64878        -5.31041
   N      -20.39889       -14.73324        -4.93335
   H       -0.23429        -1.27199         6.04049
   H       -4.79466        -3.13798         6.58647
   H       -0.01731        -2.37493         3.87437
   H       -4.60013        -4.27687         4.37443
   H       -0.78091        -5.93150        -0.27770
   H       -3.62922        -4.27366        -0.64702
   H       -5.34413        -4.67328        -0.54263
   H       -3.61941        -4.91834        -3.05660
   H       -4.75557        -3.61046        -2.71926
   H       -5.34895        -5.25398        -2.97121
   H       -5.34728        -9.46178        -1.32856
   H       -3.01229       -10.10580        -0.83398
   H       -1.38151        -8.36865        -0.19927
   H       -6.86100        -6.17584         0.62582
   H      -11.25492        -6.42196         0.90255
   H      -10.90952        -7.42798        -0.53212
   H      -11.37147        -5.72240        -0.72897
   H       -4.60103        -8.02043        -3.47495
   H       -3.45963        -9.03460        -7.88480
   H       -4.78281        -7.85747        -8.06468
   H       -5.15012        -9.57716        -7.74938
   H       -7.06316        -8.09205        -7.02850
   H       -8.62628        -7.42091        -5.04310
   H       -9.91303        -7.95111        -3.47684
   H      -10.43455        -5.04675        -2.66657
   H      -12.15282        -8.23922        -4.27066
   H      -12.45213        -3.93820        -3.88213
   H      -16.34802        -6.26684        -5.97989
   H      -16.12360       -10.58117        -6.23602
   H      -18.52352        -7.43584        -6.79693
   H      -18.38327       -10.49832        -6.76460
   H      -20.55779        -8.46284        -7.53529
   H      -24.75596       -11.16828        -9.24562
   H      -23.48011       -16.33630        -7.65728
   H      -26.33050       -12.97918        -9.93132
   H      -21.93400       -14.58441        -6.95688
*
