# ORCA input file
# SCF done       -230.508556790746          0.000967090556
! CAM-B3LYP def2-SVP def2/J RIJCOSX Grid4 TightSCF
%maxcore 5000
%tddft
    Mode sTDDFT
    Ethresh 5.0
    maxcore 5000
end

%pal
  nprocs 6
  end
* xyz 0 1
   C        2.45323        -0.23675         3.26372
   C        3.63491        -0.44292         3.91890
   F        4.39736         0.59753         4.27437
   C        4.06389        -1.74899         4.23326
   F        5.22074        -1.92259         4.88289
   C        3.30614        -2.83092         3.88272
   C        2.08848        -2.65081         3.19868
   C        1.64884        -1.33175         2.88825
   C        0.41814        -1.13072         2.22289
   C       -0.33826        -2.21499         1.85949
   C        0.13093        -3.52983         2.13242
   C        1.30023        -3.75219         2.80014
   C       -0.80275        -4.51595         1.54905
   O       -0.56892        -5.68953         1.36419
   C       -1.96314        -3.72426         1.06224
   C       -1.64658        -2.31350         1.21948
   C       -2.46619        -1.25578         0.92746
   C       -3.78678        -1.34683         0.43503
   N       -4.87566        -1.32505         0.07109
   C       -2.10705         0.09608         1.12029
   N       -1.87059         1.21194         1.24778
   C       -3.07883        -4.21016         0.45159
   C       -3.59848        -5.53636         0.48096
   C       -4.46362        -5.95575        -0.56457
   C       -5.10621        -7.24155        -0.55313
   N       -5.90066        -7.58468        -1.57454
   C       -6.08165        -6.74537        -2.56976
   C       -5.43543        -5.47172        -2.58079
   N       -4.65232        -5.11610        -1.59209
   C       -5.63688        -4.58607        -3.67037
   N       -5.82573        -3.91114        -4.57560
   C       -6.95651        -7.13820        -3.61304
   N       -7.68280        -7.46060        -4.43805
   C       -4.90509        -8.17624         0.50434
   C       -4.04479        -7.75334         1.53517
   C       -3.43112        -6.44226         1.53726
   N       -2.75645        -6.21840         2.67117
   S       -2.80403        -7.51664         3.57179
   N       -3.73663        -8.43071         2.65486
   C       -5.55970        -9.44589         0.53441
   C       -5.17910       -10.53010         1.27649
   C       -6.05949       -11.65214         1.08660
   C       -7.02373       -11.23676         0.16531
   C       -6.73904        -9.84875        -0.30991
   C       -8.09049        -9.13933        -0.25223
   C       -9.06711       -10.14877        -0.84493
   S       -8.56692       -11.79713        -0.18807
   C       -5.96409       -12.88971         1.76709
   C       -6.26370       -14.18959         1.34960
   N       -6.83109       -14.61632         0.15441
   O       -7.11038       -13.76614        -0.69530
   O       -7.01763       -15.81045        -0.00603
   C       -5.74160       -15.11166         2.31537
   C       -5.10663       -14.41700         3.30645
   C       -5.28177       -13.03180         3.06603
   C       -5.05392       -11.95126         3.91704
   C       -5.87208       -10.77780         3.96470
   C       -5.26096        -9.84523         4.73804
   C       -3.99096       -10.36826         5.15561
   N       -3.10540        -9.58374         5.88453
   O       -3.34756        -8.37535         5.93725
   O       -2.10315       -10.07168         6.38926
   C       -3.87391       -11.69954         4.72589
   C       -2.76147       -12.59169         4.80183
   C       -1.45933       -12.21099         4.71461
   C       -1.12165       -10.90163         4.30259
   C        0.03163       -10.17427         4.34516
   C        0.08298        -8.97070         3.49529
   O       -0.85179        -8.51193         2.84800
   C        1.45851        -8.48707         3.54183
   C        2.02462        -7.47053         2.82485
   C        3.39573        -7.19168         3.01555
   C        4.14426        -7.97461         3.94413
   C        5.51072        -7.68718         4.13363
   C        6.10772        -6.67250         3.43752
   C        5.36754        -5.90295         2.51641
   C        4.04096        -6.15815         2.30686
   F        5.97335        -4.91562         1.84596
   F        7.40409        -6.40428         3.61975
   C        3.52731        -9.02977         4.65830
   C        2.19703        -9.28847         4.46108
   C        1.29753       -10.29007         5.04188
   C        1.57357       -11.06485         6.13290
   C        0.66830       -11.92972         6.78813
   N        0.01653       -12.65903         7.38621
   C        2.82339       -11.06005         6.79239
   N        3.82210       -11.10375         7.35514
   H        2.13826         0.76956         3.03570
   H        3.64627        -3.82434         4.13155
   H        0.10657        -0.12024         2.01433
   H        1.61981        -4.75492         3.03611
   H       -3.68032        -3.52804        -0.13703
   H       -4.30375       -10.55257         1.89587
   H       -6.41419        -9.88028        -1.35809
   H       -8.09590        -8.21636        -0.82803
   H       -8.34937        -8.91411         0.78417
   H       -8.98777       -10.19029        -1.93144
   H      -10.10264        -9.97217        -0.56579
   H       -5.85287       -16.17652         2.23221
   H       -4.66824       -14.84472         4.18633
   H       -6.84506       -10.70613         3.51929
   H       -5.62962        -8.88032         5.02566
   H       -2.98835       -13.63968         4.92743
   H       -0.67834       -12.93425         4.88667
   H       -1.90528       -10.39180         3.73980
   H        1.42279        -6.90658         2.12574
   H        6.09354        -8.26699         4.83211
   H        3.49204        -5.56718         1.58998
   H        4.13068        -9.61117         5.33659
*
