# ORCA input file
# SCF done       -226.022883193625          0.000853551100
! CAM-B3LYP def2-SVP def2/J RIJCOSX Grid4 TightSCF
%maxcore 5000
%tddft
    Mode sTDDFT
    Ethresh 5.0
    maxcore 5000
end

%pal
  nprocs 6
  end
* xyz 0 1
   C       -6.71510        -9.98286        -6.13954
   C       -6.53898       -11.30863        -6.41952
   F       -6.60569       -11.74468        -7.68266
   C       -6.28314       -12.23257        -5.38475
   F       -6.10829       -13.52466        -5.68706
   C       -6.21299       -11.81749        -4.08463
   C       -6.39191       -10.45767        -3.76287
   C       -6.64285        -9.52101        -4.80892
   C       -6.81058        -8.15034        -4.51247
   C       -6.71971        -7.72904        -3.21007
   C       -6.47371        -8.67126        -2.17167
   C       -6.32534       -10.00289        -2.42811
   C       -6.41548        -7.97056        -0.87568
   O       -6.54072        -8.44558         0.22312
   C       -6.37041        -6.51039        -1.23979
   C       -6.81033        -6.39587        -2.62614
   C       -7.23420        -5.26176        -3.25790
   C       -7.65023        -5.22070        -4.60741
   N       -7.99902        -5.13112        -5.69638
   C       -7.35197        -3.99975        -2.63442
   N       -7.46992        -2.95465        -2.17605
   C       -5.91879        -5.51456        -0.44743
   C       -5.19812        -5.77880         0.75942
   S       -5.06624        -4.59731         2.08549
   C       -4.06517        -5.70100         2.90584
   C       -3.87320        -6.85625         2.16018
   N       -4.51747        -6.83813         0.97299
   C       -3.13205        -8.05419         2.40902
   N       -2.52723        -8.45023         3.56431
   C       -2.41576        -7.73380         4.81323
   C       -1.26339        -6.73216         4.79154
   C       -1.93469        -9.72924         3.42309
   O       -1.35131       -10.30589         4.31310
   C       -2.22783       -10.09908         2.05760
   C       -2.96174        -9.06737         1.45295
   C       -3.21237        -9.46229         0.07133
   O       -3.77010        -8.92789        -0.85832
   N       -2.58417       -10.72894        -0.04538
   C       -2.71710       -11.52656        -1.24092
   C       -3.64007       -12.72043        -1.01114
   C       -1.98159       -11.11174         1.12160
   C       -1.12034       -12.16921         1.44642
   C       -0.57209       -13.18973         0.71165
   C        0.43545       -14.00200         1.25743
   C        0.74173       -15.33650         0.96820
   N        0.18978       -16.13072        -0.03726
   O        0.53550       -17.30141        -0.09451
   O       -0.62782       -15.62811        -0.79886
   C        1.63195       -15.83352         1.97035
   C        1.87012       -14.84852         2.88733
   C        1.21828       -13.65789         2.45864
   C        1.36658       -12.37043         2.94920
   C        1.42429       -11.16928         2.15063
   C        1.66410       -10.11589         2.96568
   C        1.72232       -10.59666         4.32389
   N        1.75645        -9.73486         5.43284
   O        1.92264       -10.21105         6.53991
   O        1.60735        -8.54305         5.21140
   C        1.57162       -11.97184         4.34197
   C        1.47703       -12.83129         5.48321
   C        0.63516       -13.88309         5.60557
   C       -0.46527       -14.11969         4.71802
   C       -1.01127       -15.25965         4.22623
   C       -2.00653       -15.10732         3.12179
   O       -2.62343       -14.10133         2.84341
   C       -1.99646       -16.38402         2.39748
   C       -2.61888       -16.70747         1.22439
   C       -2.37245       -17.96955         0.64213
   C       -1.48861       -18.87790         1.29484
   C       -1.21805       -20.12161         0.69245
   C       -1.79211       -20.44385        -0.50488
   C       -2.66266       -19.54282        -1.15089
   C       -2.95075       -18.33103        -0.58909
   F       -3.21155       -19.88872        -2.32208
   F       -1.53605       -21.62652        -1.07718
   C       -0.87975       -18.52506         2.52037
   C       -1.12975       -17.29432         3.06793
   C       -0.64266       -16.66491         4.29439
   C       -0.07424       -17.34469         5.33559
   C        0.18631       -16.80537         6.60963
   N        0.38572       -16.42996         7.67599
   C        0.24080       -18.72135         5.30100
   N        0.53371       -19.82994         5.33774
   H       -6.91022        -9.28974        -6.94305
   H       -6.02071       -12.53778        -3.30502
   H       -6.99289        -7.46391        -5.32403
   H       -6.14567       -10.69510        -1.62109
   H       -6.00925        -4.47654        -0.73749
   H       -3.66451        -5.43764         3.86302
   H       -2.22087        -8.48925         5.57958
   H       -3.37069        -7.25077         5.03336
   H       -0.30990        -7.25351         4.74612
   H       -1.27851        -6.13907         5.70134
   H       -1.33734        -6.06652         3.93399
   H       -1.72858       -11.85972        -1.56966
   H       -3.13518       -10.86275        -2.00371
   H       -3.28042       -13.33252        -0.18779
   H       -3.68155       -13.33108        -1.90871
   H       -4.64183       -12.37818        -0.76290
   H       -0.84396       -12.11738         2.49080
   H       -0.94494       -13.46578        -0.26451
   H        2.02643       -16.83249         1.97022
   H        2.53249       -14.90895         3.72926
   H        1.38619       -11.15950         1.07867
   H        1.79620        -9.08613         2.69435
   H        2.14582       -12.59812         6.30170
   H        0.75666       -14.53259         6.45976
   H       -0.94157       -13.21629         4.34263
   H       -3.26954       -16.00041         0.73304
   H       -0.54798       -20.81940         1.16915
   H       -3.60678       -17.64501        -1.10100
   H       -0.20591       -19.22962         2.97981
*
