# ORCA input file
# SCF done       -244.556534868162          0.000765192896
! CAM-B3LYP def2-SVP def2/J RIJCOSX Grid4 TightSCF
%maxcore 5000
%tddft
    Mode sTDDFT
    Ethresh 5.0
    maxcore 5000
end

%pal
  nprocs 6
  end
* xyz 0 1
   C       -3.17927        -2.61277       -10.24065
   C       -2.19669        -3.47741       -10.63382
   F       -1.14400        -3.02990       -11.32854
   C       -2.27762        -4.84849       -10.31479
   F       -1.30035        -5.67279       -10.71322
   C       -3.34075        -5.33565        -9.60768
   C       -4.37074        -4.47032        -9.18970
   C       -4.28903        -3.08342        -9.50988
   C       -5.31003        -2.19670        -9.10016
   C       -6.38016        -2.68296        -8.39542
   C       -6.45999        -4.07172        -8.08808
   C       -5.48539        -4.95020        -8.46723
   C       -7.71804        -4.34865        -7.36927
   O       -8.11638        -5.41363        -6.95779
   C       -8.42945        -3.04191        -7.31358
   C       -7.55518        -2.01392        -7.85166
   C       -7.76260        -0.66533        -7.77486
   C       -6.87699         0.30200        -8.29607
   N       -6.19053         1.12559        -8.70426
   C       -8.85985        -0.08333        -7.10286
   N       -9.70869         0.43228        -6.52824
   C       -9.74003        -2.93296        -6.99636
   C      -10.54099        -4.00493        -6.48014
   C      -11.66141        -4.51393        -7.10070
   N      -12.15448        -4.07011        -8.33934
   O      -13.20134        -4.54045        -8.74006
   O      -11.49857        -3.22638        -8.93471
   C      -12.19059        -5.61345        -6.33342
   C      -11.37878        -5.80891        -5.26765
   C      -10.31947        -4.82885        -5.28887
   C       -9.35430        -4.59510        -4.33499
   C       -8.69128        -3.35160        -4.09424
   C       -7.94207        -3.47105        -2.96794
   C       -8.06124        -4.80937        -2.45469
   N       -7.27100        -5.20636        -1.36452
   O       -7.45717        -6.29730        -0.84258
   O       -6.41688        -4.42279        -0.98556
   C       -8.91366        -5.54306        -3.28653
   C       -9.23413        -6.91326        -3.37435
   C       -9.24323        -7.82991        -2.35709
   C       -9.58249        -9.17948        -2.56173
   N       -9.58983       -10.11828        -1.55805
   C       -9.19601        -9.91083        -0.18233
   C       -7.68527        -9.76493        -0.02535
   C       -9.98696       -11.38104        -2.01588
   O      -10.06756       -12.36468        -1.30736
   C      -10.25214       -11.18379        -3.42907
   C       -9.99329        -9.83474        -3.73553
   C      -10.29708        -9.62987        -5.13871
   O      -10.25508        -8.64713        -5.84730
   N      -10.71960       -10.89529        -5.59092
   C      -11.07401       -11.11317        -6.97309
   C       -9.94819       -11.79721        -7.74417
   C      -10.70287       -11.82948        -4.59033
   C      -11.12750       -13.16780        -4.74852
   C      -11.16025       -14.03401        -3.70393
   C      -11.69899       -15.34086        -3.76831
   S      -12.29813       -16.06669        -5.23919
   C      -12.90027       -17.41030        -4.38518
   C      -12.64173       -17.35584        -3.03921
   C      -13.15020       -18.40874        -2.11585
   O      -14.14623       -19.03415        -2.35745
   O      -12.44846       -18.61454        -0.99678
   C      -11.94257       -16.17263        -2.68969
   S      -11.58074       -15.63552        -1.02702
   C      -13.24855       -15.42817        -0.56633
   C      -13.70142       -14.54325         0.33395
   C      -15.08697       -14.40840         0.65226
   C      -16.17639       -14.80079        -0.05988
   C      -17.48577       -14.92953         0.65059
   O      -17.77268       -14.45400         1.72221
   C      -18.30681       -15.80394        -0.20999
   C      -19.53628       -16.34368         0.03618
   C      -20.11966       -17.19180        -0.93197
   C      -19.40872       -17.47707        -2.13465
   C      -19.99227       -18.33387        -3.08950
   C      -21.22672       -18.87559        -2.86515
   C      -21.93113       -18.58914        -1.67778
   C      -21.38974       -17.76613        -0.73018
   F      -23.13901       -19.13269        -1.48578
   F      -21.78222       -19.68470        -3.77470
   C      -18.14042       -16.89851        -2.36596
   C      -17.60432       -16.06411        -1.42161
   C      -16.36122       -15.30165        -1.40886
   C      -15.65721       -14.94684        -2.53000
   C      -14.61473       -13.99984        -2.55732
   N      -13.77453       -13.22622        -2.67879
   C      -15.89635       -15.46021        -3.82097
   N      -15.98412       -15.85853        -4.89408
   H       -3.10142        -1.56654       -10.49200
   H       -3.38811        -6.38736        -9.37245
   H       -5.22667        -1.15407        -9.36207
   H       -5.56726        -5.99831        -8.22257
   H      -10.27151        -2.01379        -7.21871
   H      -13.07531        -6.15664        -6.60377
   H      -11.54289        -6.50739        -4.47190
   H       -8.85098        -2.45271        -4.65752
   H       -7.34409        -2.71431        -2.49559
   H       -9.51392        -7.24740        -4.36551
   H       -9.00419        -7.52139        -1.35258
   H       -9.54111       -10.79668         0.35833
   H       -9.70904        -9.03148         0.21592
   H       -7.17738       -10.61229        -0.48001
   H       -7.43541        -9.73812         1.03135
   H       -7.32655        -8.84735        -0.48361
   H      -11.25956       -10.12251        -7.39732
   H      -11.99576       -11.69853        -7.02546
   H       -9.05252       -11.18157        -7.71774
   H      -10.24431       -11.93310        -8.78030
   H       -9.71422       -12.76956        -7.31627
   H      -11.47834       -13.48701        -5.72015
   H      -10.81280       -13.70978        -2.73030
   H      -13.41405       -18.19888        -4.89873
   H      -11.69321       -18.01071        -0.89685
   H      -13.92131       -16.10416        -1.07279
   H      -13.00123       -13.93014         0.88269
   H      -15.31273       -13.98379         1.62533
   H      -20.05679       -16.12752         0.95658
   H      -19.46722       -18.56213        -4.00370
   H      -21.94080       -17.55851         0.17360
   H      -17.61555       -17.14167        -3.27615
*
