# ORCA input file
# SCF done       -197.204033148244          0.000486283232
! CAM-B3LYP def2-SVP def2/J RIJCOSX Grid4 TightSCF
%maxcore 5000
%tddft
    Mode sTDDFT
    Ethresh 5.0
    maxcore 5000
end

%pal
  nprocs 6
  end
* xyz 0 1
   C       -3.73290        -1.52859        -3.52838
   N       -4.70118        -0.69054        -3.99266
   C       -5.68033        -1.01201        -4.99973
   C       -5.06572        -1.02811        -6.39703
   C       -4.59337         0.59014        -3.41513
   O       -5.36185         1.50321        -3.67352
   C       -3.46206         0.48653        -2.53331
   C       -2.95825        -0.85426        -2.63088
   C       -1.83723        -0.97632        -1.72341
   O       -1.09729        -1.89636        -1.45443
   N       -1.74406         0.29666        -1.12453
   C       -0.68572         0.60028        -0.19319
   C        0.43687         1.40173        -0.84858
   C       -2.69477         1.17165        -1.60379
   C       -2.80965         2.51555        -1.14444
   C       -3.67049         3.40112        -1.68942
   C       -3.79846         4.78503        -1.28563
   C       -4.98874         5.50080        -1.53118
   O       -6.10804         4.92356        -2.05632
   C       -6.56938         3.67333        -1.56646
   C       -5.04341         6.88174        -1.26491
   O       -6.13659         7.67577        -1.43447
   C       -7.44627         7.14816        -1.38819
   C       -3.90050         7.53989        -0.77980
   C       -2.75662         6.80458        -0.47075
   C       -2.70873         5.45673        -0.71900
   C       -3.88208         8.96733        -0.50140
   N       -4.23409         9.96019        -1.37376
   C       -4.54689         9.81867        -2.77477
   C       -3.34680         9.31742        -3.57356
   C       -4.05401        11.24429        -0.80209
   O       -4.28508        12.27703        -1.39681
   C       -3.57361        10.97227         0.52902
   C       -3.46238         9.55850         0.67386
   C       -2.99268         9.29211         2.00912
   O       -2.74843         8.26262         2.60585
   N       -2.82223        10.57460         2.58553
   C       -2.46102        10.67365         3.97809
   C       -3.61866        11.16856         4.84101
   C       -3.16705        11.58034         1.70485
   C       -3.11119        12.99849         1.86430
   C       -2.50180        13.72493         2.82122
   C       -2.40583        15.17420         2.80472
   C       -3.41814        16.01378         2.30438
   O       -4.65339        15.52813         1.95350
   C       -5.35518        14.75189         2.90575
   C       -3.17278        17.39127         2.16166
   O       -3.98891        18.29891         1.58320
   C       -5.38664        18.10247         1.51324
   C       -1.93129        17.91195         2.57424
   C       -0.96578        17.08125         3.13083
   C       -1.20503        15.73327         3.25081
   C       -1.73869        19.35547         2.53005
   N       -0.66059        19.97648         1.95632
   C        0.31897        19.36174         1.09342
   C       -0.30485        18.90153        -0.22081
   C       -0.72550        21.37909         2.11191
   O        0.11778        22.13400         1.66657
   C       -1.93080        21.59849         2.87295
   C       -2.53255        20.32013         3.10292
   C       -3.73200        20.51900         3.87604
   O       -4.56771        19.75573         4.31649
   N       -3.79002        21.91778         4.05577
   C       -4.84203        22.51966         4.83579
   C       -4.38000        22.85602         6.25232
   C       -2.72269        22.56157         3.46939
   C       -2.54656        23.98722         3.50249
   C       -1.50060        24.60019         2.94635
   H       -3.67469        -2.54666        -3.86586
   H       -6.45100        -0.23865        -4.94022
   H       -6.12728        -1.98373        -4.76882
   H       -4.64652        -0.05268        -6.63145
   H       -5.82777        -1.26655        -7.13372
   H       -4.27372        -1.77127        -6.45955
   H       -0.29804        -0.36534         0.14393
   H       -1.09337         1.13492         0.66985
   H        0.86637         0.83345        -1.66998
   H        1.21775         1.60598        -0.12118
   H        0.06499         2.34626        -1.24000
   H       -2.18998         2.80317        -0.30779
   H       -4.28969         3.07668        -2.51305
   H       -6.49361         2.91541        -2.34852
   H       -7.62113         3.80505        -1.29560
   H       -6.00852         3.35034        -0.68815
   H       -7.58387         6.49503        -0.52314
   H       -7.69842         6.60631        -2.30145
   H       -8.09399         8.01948        -1.28672
   H       -1.90544         7.31716        -0.05307
   H       -1.79702         4.91515        -0.52683
   H       -4.83081        10.81942        -3.11334
   H       -5.39553         9.14412        -2.89646
   H       -2.50210         9.99141        -3.44794
   H       -3.60201         9.27328        -4.62872
   H       -3.05324         8.32270        -3.24449
   H       -1.57800        11.30723         4.09841
   H       -2.19240         9.65477         4.27619
   H       -3.93548        12.16422         4.53982
   H       -3.31405        11.19803         5.88374
   H       -4.46489        10.49259         4.74543
   H       -3.57552        13.51871         1.03535
   H       -1.93215        13.24723         3.60450
   H       -6.34065        15.20678         3.03592
   H       -5.47961        13.72956         2.53951
   H       -4.84149        14.73139         3.86863
   H       -5.77940        19.04484         1.13204
   H       -5.80326        17.91743         2.50536
   H       -5.65052        17.28956         0.83474
   H       -0.04533        17.50635         3.50057
   H       -0.44761        15.08444         3.66433
   H        0.78895        18.51660         1.60222
   H        1.07390        20.13046         0.90471
   H       -1.07070        18.15129        -0.03678
   H        0.45964        18.47200        -0.86240
   H       -0.75978        19.74485        -0.73474
   H       -5.64388        21.77671         4.88069
   H       -5.21760        23.41206         4.32664
   H       -4.05639        21.95028         6.75926
   H       -5.19959        23.29592         6.81422
   H       -3.54886        23.55769         6.23517
   H       -3.31343        24.56318         4.00213
   H       -0.72606        24.04655         2.44295
   H       -1.39731        25.67105         2.98295
*
