# ORCA input file
# SCF done       -191.781806284438          0.000670923557
! CAM-B3LYP def2-SVP def2/J RIJCOSX Grid4 TightSCF
%maxcore 5000
%tddft
    Mode sTDDFT
    Ethresh 5.0
    maxcore 5000
end

%pal
  nprocs 6
  end
* xyz 0 1
   C      -15.30050        -9.99385       -16.95796
   S      -16.85874        -9.99350       -17.66259
   C      -17.16183       -11.59037       -17.15289
   C      -16.09624       -12.11304       -16.46005
   C      -15.00389       -11.18435       -16.33993
   C      -13.80592       -11.57131       -15.64687
   C      -13.77788       -12.84593       -15.12422
   C      -14.84310       -13.75544       -15.23760
   C      -15.99937       -13.41867       -15.89131
   O      -17.08960       -14.21053       -16.05869
   C      -17.05999       -15.50782       -15.51387
   C      -12.72225       -10.63515       -15.51451
   C      -11.49815       -10.89743       -15.00716
   C      -10.45294        -9.94077       -14.86583
   S       -8.92750       -10.44945       -14.19638
   C       -8.27014        -8.84514       -14.32357
   C       -9.20271        -7.98244       -14.86405
   C      -10.41829        -8.59379       -15.16644
   C       -6.94876        -8.55372       -13.88962
   C       -6.30601        -7.33223       -13.87020
   C       -5.01074        -7.39355       -13.35843
   C       -4.62885        -8.66375       -12.97678
   S       -5.91258        -9.80284       -13.26511
   C       -3.39713        -9.07863       -12.40322
   S       -3.07922       -10.75135       -12.06324
   C       -1.51249       -10.37608       -11.39658
   C       -1.27784        -9.01450       -11.46006
   C       -2.32504        -8.29171       -12.02349
   C       -0.71244       -11.42412       -10.87874
   C        0.46460       -11.26705       -10.22262
   C        1.18458       -12.36552        -9.70070
   S        2.64149       -12.08038        -8.69884
   C        2.75597       -13.77998        -8.50552
   C        1.72303       -14.41795        -9.20357
   N        0.87521       -13.62534        -9.84592
   C        1.81033       -15.90284        -9.04318
   C        3.00515       -16.02525        -8.14355
   C        3.53186       -14.76301        -7.85511
   S        4.88284       -14.84854        -6.80191
   C        4.74356       -16.59882        -6.73716
   C        3.69199       -17.05624        -7.51686
   C        5.64299       -17.32026        -5.91125
   C        5.66434       -18.66938        -5.78231
   C        6.51893       -19.38620        -4.90462
   S        6.44764       -21.13034        -4.88039
   C        7.64208       -21.21358        -3.61830
   C        8.05946       -19.94821        -3.25999
   C        7.43685       -18.93046        -3.97837
   C        8.05475       -22.45815        -3.07789
   C        7.70073       -23.72735        -3.48228
   C        8.27687       -24.73793        -2.71394
   C        9.08145       -24.26510        -1.69719
   S        9.13046       -22.52467        -1.70883
   C        9.78879       -25.01377        -0.71926
   S       10.62899       -24.23274         0.58791
   C       11.12088       -25.76298         1.26084
   C       10.65012       -26.80347         0.48206
   C        9.90672       -26.38662        -0.61909
   C       11.87778       -25.78623         2.46082
   C       12.32036       -26.91082         3.07439
   C       13.01370       -26.93271         4.30989
   S       13.08536       -25.50594         5.30690
   C       13.83121       -26.34086         6.58720
   C       14.04515       -27.66690         6.28611
   C       13.61079       -28.01611         4.96477
   C       13.82084       -29.34287         4.49322
   C       14.34616       -30.25682         5.37368
   C       14.72342       -29.93342         6.69039
   C       14.60765       -28.65084         7.15360
   O       14.97692       -28.19983         8.38169
   C       15.52952       -29.12220         9.28870
   C       13.58201       -29.72484         3.10150
   C       13.02372       -30.86498         2.71972
   H      -14.70023        -9.11183       -17.04907
   H      -18.09162       -12.06899       -17.38142
   H      -12.90573       -13.17934       -14.58419
   H      -14.72406       -14.72883       -14.78856
   H      -18.01988       -15.95603       -15.76477
   H      -16.94475       -15.48157       -14.42571
   H      -16.25449       -16.10682       -15.95003
   H      -12.92515        -9.63236       -15.85985
   H      -11.24890       -11.89423       -14.67217
   H       -9.00347        -6.93947       -15.03266
   H      -11.25234        -8.06524       -15.59116
   H       -6.76658        -6.42346       -14.21253
   H       -4.36710        -6.53736       -13.26915
   H       -0.36813        -8.56182       -11.10929
   H       -2.31384        -7.22393       -12.14709
   H       -1.08928       -12.43014       -10.99932
   H        0.88394       -10.28760       -10.04734
   H        1.96152       -16.40169       -10.00241
   H        0.90666       -16.31596        -8.59199
   H        3.43924       -18.09665        -7.60649
   H        6.34202       -16.72130        -5.34475
   H        4.98285       -19.27077        -6.36719
   H        8.79680       -19.78471        -2.49349
   H        7.64227       -17.88716        -3.82213
   H        7.04025       -23.90255        -4.31334
   H        8.10627       -25.78512        -2.88500
   H       10.83618       -27.83725         0.71126
   H        9.46469       -27.06246        -1.32882
   H       12.09914       -24.82352         2.90368
   H       12.11113       -27.87395         2.63382
   H       14.07066       -25.83567         7.50044
   H       14.51856       -31.26692         5.03274
   H       15.13349       -30.71626         7.30837
   H       15.74774       -28.55461        10.19184
   H       16.45570       -29.55892         8.90153
   H       14.82200       -29.92325         9.52570
   H       13.93712       -29.01932         2.35989
   H       12.64374       -31.57717         3.43326
   H       12.90954       -31.12147         1.68008
*
