# ORCA input file
# SCF done       -223.602852594711          0.000295806550
! CAM-B3LYP def2-SVP def2/J RIJCOSX Grid4 TightSCF
%maxcore 5000
%tddft
    Mode sTDDFT
    Ethresh 5.0
    maxcore 5000
end

%pal
  nprocs 6
  end
* xyz 0 1
   C      -21.92052        -7.82507        -4.44318
   C      -22.30792        -8.76271        -3.49703
   C      -21.74377       -10.02992        -3.47024
   C      -20.78060       -10.40018        -4.39695
   C      -20.38648        -9.47206        -5.34543
   C      -20.95101        -8.17671        -5.36887
   C      -20.33626        -7.41231        -6.44859
   C      -20.69595        -6.14949        -6.84201
   C      -21.73994        -5.40458        -6.25478
   N      -22.57388        -4.74249        -5.82544
   C      -20.11242        -5.42590        -7.90220
   N      -19.68775        -4.77797        -8.75049
   C      -19.27039        -8.24046        -6.99328
   C      -19.44922        -9.57951        -6.45196
   C      -19.06569       -10.74722        -7.05838
   C      -18.45575       -10.79867        -8.32926
   N      -18.01561       -10.88117        -9.38633
   C      -19.32534       -12.02856        -6.53415
   N      -19.48963       -13.09500        -6.14198
   C      -18.24653        -7.78029        -7.78057
   C      -16.97045        -8.34166        -7.97709
   S      -16.21774        -9.48651        -6.88773
   C      -14.75788        -9.49228        -7.82606
   C      -14.86316        -8.64017        -8.91430
   C      -16.08094        -7.98451        -8.98235
   C      -13.65901       -10.29722        -7.45246
   C      -13.53501       -11.11358        -6.34348
   C      -12.31860       -11.78223        -6.28100
   C      -11.48116       -11.50177        -7.34532
   S      -12.22233       -10.36982        -8.43855
   C      -10.19305       -12.02960        -7.60300
   S       -9.42382       -13.10971        -6.47284
   C       -8.03040       -13.27225        -7.50650
   C       -8.18764       -12.51663        -8.65495
   C       -9.39006       -11.81982        -8.70707
   C       -6.92019       -14.08368        -7.16553
   C       -6.78801       -14.74148        -5.98718
   C       -5.69369       -15.56192        -5.62203
   S       -5.63338       -16.20623        -3.98920
   C       -4.14989       -16.98897        -4.33895
   C       -3.72963       -16.77294        -5.65360
   C       -4.59728       -15.96626        -6.37274
   C       -2.42588       -17.48890        -5.92190
   C       -2.59310       -18.55668        -7.00680
   C       -1.31429       -16.50528        -6.29672
   C       -2.17274       -18.11584        -4.57023
   C       -3.20049       -17.79943        -3.67913
   S       -2.94651       -18.47232        -2.12364
   C       -1.43960       -19.19394        -2.66604
   C       -1.18532       -18.90403        -4.00020
   C       -0.66758       -19.93273        -1.73579
   C        0.48763       -20.58063        -2.02840
   C        1.28725       -21.27687        -1.08608
   S        2.72178       -22.10193        -1.63412
   C        3.11505       -22.60268        -0.01476
   C        2.16645       -22.14579         0.87968
   C        1.14681       -21.41106         0.28370
   C        4.28153       -23.36002         0.25355
   C        5.19097       -23.87094        -0.65308
   C        6.24162       -24.55956        -0.05714
   C        6.16840       -24.58830         1.32393
   S        4.74884       -23.74647         1.88350
   C        7.08539       -25.17394         2.23091
   S        6.91455       -24.99166         3.94575
   C        8.37004       -25.90898         4.24240
   C        8.92682       -26.33037         3.04259
   C        8.21610       -25.92099         1.92651
   C        8.83727       -26.06404         5.56166
   C        9.93162       -26.79176         5.92813
   C       10.41366       -26.93203         7.24677
   C       10.23790       -26.09434         8.32045
   C       10.38550       -26.50754         9.70982
   C       10.99119       -27.64110        10.18670
   C       11.63540       -28.62653         9.41010
   N       12.18124       -29.47267         8.85699
   C       11.09536       -27.96489        11.55594
   N       11.22019       -28.29270        12.64919
   C        9.75309       -25.47880        10.52692
   C        9.37318       -24.40463         9.69199
   C        8.72008       -23.30048        10.21360
   C        8.45386       -23.27047        11.57429
   C        8.83765       -24.31821        12.39856
   C        9.48858       -25.43085        11.88644
   C        9.80558       -24.70334         8.33430
   C       10.01839       -23.76478         7.35793
   C        9.66369       -22.40625         7.48163
   N        9.38237       -21.29347         7.51261
   C       10.68612       -24.00896         6.14085
   N       11.25846       -24.11984         5.15183
   H      -22.36904        -6.84539        -4.44546
   H      -23.05942        -8.49735        -2.76915
   H      -22.05690       -10.73913        -2.71930
   H      -20.34388       -11.38537        -4.36622
   H      -18.38049        -6.82174        -8.26561
   H      -14.06165        -8.51164        -9.61972
   H      -16.34681        -7.28387        -9.75363
   H      -14.31748       -11.21039        -5.61150
   H      -12.04037       -12.46216        -5.49559
   H       -7.43990       -12.47830        -9.42696
   H       -9.68764       -11.18137        -9.52030
   H       -6.14430       -14.14828        -7.91555
   H       -7.56934       -14.63230        -5.24534
   H       -4.45887       -15.68131        -7.39948
   H       -2.84974       -18.08996        -7.95459
   H       -3.38460       -19.25125        -6.73447
   H       -1.66730       -19.11346        -7.12874
   H       -1.55429       -16.00961        -7.23413
   H       -0.37067       -17.03308        -6.41046
   H       -1.20047       -15.75036        -5.52201
   H       -0.30846       -19.25165        -4.51453
   H       -1.04987       -19.95987        -0.72512
   H        0.85652       -20.57843        -3.04421
   H        2.22964       -22.34898         1.93445
   H        0.33118       -20.97887         0.83383
   H        5.07997       -23.73757        -1.71462
   H        7.04148       -25.01742        -0.60952
   H        9.83402       -26.90355         2.99152
   H        8.50494       -26.15126         0.91745
   H        8.25046       -25.57354         6.32868
   H       10.43158       -27.38722         5.17774
   H       10.94802       -27.85397         7.43530
   H        8.41021       -22.48406         9.58167
   H        7.93985       -22.41949        11.99445
   H        8.62381       -24.27246        13.45549
   H        9.77254       -26.23732        12.54192
*
