# ORCA input file
# SCF done       -217.911414088861          0.000817729648
! CAM-B3LYP def2-SVP def2/J RIJCOSX Grid4 TightSCF
%maxcore 5000
%tddft
    Mode sTDDFT
    Ethresh 5.0
    maxcore 5000
end

%pal
  nprocs 6
  end
* xyz 0 1
   C       -1.56120         1.18708         4.51882
   C       -1.06714         0.68803         5.71434
   C       -0.68361        -0.64092         5.83319
   C       -0.77795        -1.50895         4.75645
   C       -1.27254        -1.02272         3.55693
   C       -1.66957         0.32919         3.43490
   C       -2.15774         0.55956         2.08228
   C       -2.48102         1.76926         1.53437
   C       -2.39919         2.99749         2.22551
   N       -2.35743         4.02636         2.73189
   C       -2.89106         1.97019         0.19838
   N       -3.21775         2.20760        -0.87613
   C       -2.22436        -0.75061         1.43404
   C       -1.45388        -1.67208         2.26976
   C       -0.81686        -2.80314         1.84117
   C       -0.77680        -3.21242         0.49096
   N       -0.64553        -3.55520        -0.59619
   C       -0.07011        -3.65305         2.68231
   N        0.51783        -4.39459         3.33163
   C       -2.99318        -1.04385         0.35360
   C       -3.40011        -2.34889        -0.10082
   C       -3.63061        -3.40115         0.80092
   C       -4.01865        -4.62534         0.32259
   C       -4.19753        -4.83117        -1.05716
   C       -4.00867        -3.78865        -1.95298
   C       -3.62993        -2.55373        -1.46794
   C       -4.57883        -6.21328        -1.26418
   C       -4.64073        -6.85254        -0.01377
   C       -4.34590        -5.87982         1.10291
   C       -3.16331        -6.33748         1.97187
   C       -1.92712        -6.67794         1.14707
   C       -5.59724        -5.57273         1.95994
   C       -6.25831        -6.77339         2.62358
   C       -4.90434        -8.20123         0.05963
   C       -5.15341        -8.91194        -1.11203
   C       -5.11449        -8.27197        -2.34411
   C       -4.82174        -6.92102        -2.43022
   C       -5.38627       -10.40811        -0.99186
   C       -4.05312       -11.06390        -0.80464
   N       -3.33697       -10.91975         0.28973
   S       -1.93993       -11.73128         0.12459
   N       -2.22987       -12.29804        -1.36655
   C       -3.40390       -11.86868        -1.77568
   C       -3.96953       -12.21359        -3.11197
   C       -5.41830       -11.84039        -3.13666
   C       -6.05642       -11.00613        -2.18163
   N       -7.33214       -10.82603        -2.44680
   S       -7.71751       -11.63083        -3.80183
   N       -6.24051       -12.24609        -4.07969
   C       -3.26921       -11.49048        -4.24842
   C       -3.19877       -12.11676        -5.48942
   C       -2.58598       -11.46940        -6.53922
   C       -2.08834       -10.16765        -6.36522
   C       -2.17286        -9.53552        -5.13464
   C       -2.75883       -10.20930        -4.07734
   C       -1.53704        -9.71333        -7.62425
   C       -1.70174       -10.73567        -8.57716
   C       -2.38725       -11.94001        -7.96545
   C       -1.40110       -13.12474        -8.06691
   C       -1.83345       -14.42321        -7.40007
   C       -3.77691       -12.22494        -8.57181
   C       -3.79811       -12.65119       -10.03417
   C       -1.16773       -10.59422        -9.83295
   C       -0.48620        -9.41352       -10.16912
   C       -0.41808        -8.36689        -9.24108
   C       -0.91682        -8.51960        -7.96411
   C        0.13401        -9.24893       -11.45941
   C        0.71504       -10.21529       -12.21586
   C        1.01253       -10.09090       -13.64349
   C        1.15857        -8.93522       -14.35853
   C        1.09761        -7.63249       -13.81769
   N        1.06956        -6.54653       -13.44682
   C        1.44357        -8.89131       -15.74051
   N        1.67304        -8.78707       -16.86003
   C        1.13717       -11.44538       -14.16284
   C        1.10609       -12.35678       -13.08213
   C        1.19371       -13.72145       -13.30660
   C        1.31322       -14.17120       -14.61227
   C        1.35172       -13.27784       -15.67420
   C        1.26499       -11.91041       -15.46296
   C        1.01313       -11.60027       -11.84434
   C        1.37995       -12.04806       -10.60609
   C        1.67547       -13.39566       -10.31363
   N        1.88878       -14.48258       -10.01290
   C        1.57705       -11.21363        -9.48375
   N        1.83352       -10.59360        -8.55316
   H       -1.85786         2.22048         4.44629
   H       -0.98284         1.34573         6.56584
   H       -0.30720        -1.00603         6.77647
   H       -0.48218        -2.54058         4.86019
   H       -3.40664        -0.21683        -0.20883
   H       -3.53258        -3.22938         1.86366
   H       -4.15842        -3.93648        -3.01130
   H       -3.46643        -1.73243        -2.14961
   H       -3.45654        -7.21702         2.54558
   H       -2.92204        -5.54206         2.68145
   H       -2.10982        -7.55366         0.52874
   H       -1.08711        -6.88952         1.80449
   H       -1.65171        -5.85197         0.49463
   H       -6.33296        -5.08211         1.31686
   H       -5.30260        -4.85597         2.73024
   H       -6.66739        -7.44980         1.87847
   H       -7.07620        -6.42959         3.25330
   H       -5.55773        -7.31820         3.25057
   H       -4.89366        -8.72638         1.00164
   H       -5.30409        -8.83151        -3.24878
   H       -4.77326        -6.43604        -3.39323
   H       -6.00510       -10.58069        -0.10379
   H       -3.86867       -13.29095        -3.28281
   H       -3.63782       -13.09447        -5.60973
   H       -1.79038        -8.53581        -4.99724
   H       -2.82165        -9.72829        -3.11157
   H       -0.45412       -12.80150        -7.62532
   H       -1.21340       -13.31923        -9.12490
   H       -1.88363       -14.30840        -6.32149
   H       -1.09921       -15.19488        -7.62138
   H       -2.79912       -14.75878        -7.76931
   H       -4.37560       -11.31669        -8.46095
   H       -4.25340       -12.99976        -7.96954
   H       -3.45185       -11.84998       -10.68154
   H       -4.81918       -12.89351       -10.32170
   H       -3.18490       -13.53299       -10.20063
   H       -1.27199       -11.37189       -10.57484
   H        0.08923        -7.45548        -9.52005
   H       -0.81164        -7.72808        -7.23858
   H        0.08452        -8.24859       -11.86922
   H        1.15962       -14.42445       -12.49003
   H        1.37673       -15.23151       -14.80329
   H        1.44799       -13.65116       -16.68220
   H        1.29138       -11.23196       -16.29968
*
