# ORCA input file
# SCF done       -185.968056726318          0.000666043993
! CAM-B3LYP def2-SVP def2/J RIJCOSX Grid4 TightSCF
%maxcore 5000
%tddft
    Mode sTDDFT
    Ethresh 5.0
    maxcore 5000
end

%pal
  nprocs 6
  end
* xyz 0 1
   C       -1.78471        -1.68562         7.75291
   C       -2.42727        -1.66174         8.98227
   C       -3.62599        -2.33150         9.17444
   C       -4.20993        -3.05729         8.14613
   C       -3.57336        -3.09534         6.91739
   C       -2.36210        -2.39861         6.71452
   C       -1.95106        -2.57222         5.32765
   C       -0.82721        -2.02902         4.75900
   C        0.13860        -1.28395         5.46915
   N        0.97002        -0.67321         5.97280
   C       -0.44865        -2.11349         3.40304
   N       -0.06645        -2.11440         2.31915
   C       -2.99000        -3.35118         4.66806
   C       -3.92392        -3.78402         5.68243
   C       -4.83028        -4.81611         5.59844
   C       -5.02026        -5.65698         4.48877
   N       -5.23683        -6.38320         3.62429
   C       -5.65780        -5.23294         6.66219
   N       -6.37041        -5.63045         7.46959
   C       -2.99097        -3.59888         3.31001
   C       -4.04408        -3.90104         2.44510
   S       -3.63360        -4.57753         0.88653
   C       -5.29186        -4.63037         0.39259
   C       -6.12185        -4.09905         1.37903
   C       -5.42471        -3.66855         2.52163
   S       -6.11289        -2.80083         3.88093
   C       -7.69136        -2.19577         3.18432
   C       -8.63923        -3.36894         3.22873
   O       -9.54221        -3.46033         4.01260
   C       -8.29317        -4.47329         2.24175
   O       -7.47031        -4.04941         1.17347
   C       -5.66789        -5.17194        -0.86009
   N       -4.74801        -5.80636        -1.66892
   C       -5.38497        -6.23342        -2.78868
   C       -5.21294        -6.90922        -3.98914
   C       -6.46977        -6.91451        -4.61426
   N       -7.38025        -6.25390        -3.81367
   C       -6.74720        -5.83666        -2.68883
   C       -6.92485        -5.17416        -1.48014
   C       -6.87211        -7.46814        -5.85224
   C       -6.08059        -8.23030        -6.65139
   C       -6.45100        -8.80555        -7.88721
   S       -5.40936       -10.04024        -8.53688
   C       -6.43923       -10.27935        -9.91632
   C       -7.52423        -9.40189        -9.87415
   C       -7.53709        -8.57848        -8.73175
   S       -8.71457        -7.31138        -8.40374
   C       -9.48271        -7.06280       -10.04628
   C      -10.45327        -8.20235       -10.21392
   O      -11.63771        -8.09097       -10.05074
   C       -9.79594        -9.53739       -10.52185
   O       -8.43094        -9.45147       -10.88149
   C       -6.17934       -11.20011       -10.95364
   C       -5.47343       -12.36803       -10.84317
   C       -4.81230       -13.06776       -11.93535
   C       -5.00287       -12.87866       -13.27826
   C       -5.93087       -11.98302       -13.84951
   N       -6.66629       -11.28135       -14.38385
   C       -4.31688       -13.59312       -14.28315
   N       -3.79655       -14.13590       -15.15040
   C       -3.88241       -14.01091       -11.32441
   C       -4.07100       -13.99972        -9.92327
   C       -3.29878       -14.79865        -9.09745
   C       -2.33426       -15.60976        -9.67669
   C       -2.15234       -15.62963       -11.05208
   C       -2.92188       -14.83471       -11.88921
   C       -5.16406       -13.09183        -9.61888
   C       -5.95356       -13.13445        -8.49752
   C       -5.65976       -13.90638        -7.35623
   N       -5.45699       -14.49737        -6.39343
   C       -7.20010       -12.48427        -8.40957
   N       -8.24247       -12.00573        -8.33984
   H       -0.85658        -1.15471         7.62173
   H       -1.98661        -1.10817         9.79724
   H       -4.11473        -2.28991        10.13581
   H       -5.14568        -3.56610         8.30833
   H       -2.03649        -3.50608         2.80727
   H       -7.52083        -1.82315         2.17597
   H       -8.02426        -1.39908         3.84764
   H       -9.21801        -4.84636         1.79213
   H       -7.83063        -5.30270         2.79639
   H       -3.78157        -5.94613        -1.42714
   H       -4.31484        -7.34058        -4.38045
   H       -8.35301        -6.13484        -4.03954
   H       -7.81290        -4.73437        -1.07809
   H       -7.89725        -7.28527        -6.14066
   H       -5.08262        -8.47725        -6.31726
   H       -8.70513        -7.04077       -10.80719
   H      -10.00358        -6.10874        -9.98601
   H      -10.30283        -9.98505       -11.38187
   H       -9.93247       -10.20975        -9.66283
   H       -6.54939       -10.89898       -11.92485
   H       -3.43047       -14.78503        -8.02748
   H       -1.71798       -16.23276        -9.04672
   H       -1.39846       -16.27155       -11.48153
   H       -2.76383       -14.86302       -12.95473
*
