# ORCA input file
# SCF done       -163.015603492730          0.000286668156
! CAM-B3LYP def2-SVP def2/J RIJCOSX Grid4 TightSCF
%maxcore 5000
%tddft
    Mode sTDDFT
    Ethresh 5.0
    maxcore 5000
end

%pal
  nprocs 6
  end
* xyz 0 1
   C       -4.07102        -2.07090         8.49852
   C       -4.01248        -2.90487         9.60641
   C       -3.76994        -4.26252         9.46738
   C       -3.56767        -4.82503         8.21505
   C       -3.62245        -4.00213         7.10377
   C       -3.88211        -2.62101         7.24181
   C       -3.92190        -2.01836         5.91284
   C       -4.12451        -0.68303         5.65413
   C       -4.26056         0.30440         6.65050
   N       -4.37666         1.16530         7.40218
   C       -4.21451        -0.08804         4.38081
   N       -4.31408         0.47706         3.38430
   C       -3.76653        -3.09300         4.95385
   C       -3.42515        -4.28987         5.68887
   C       -2.77567        -5.39920         5.19778
   C       -2.31569        -5.53020         3.87480
   N       -1.88124        -5.68476         2.82228
   C       -2.41780        -6.51549         5.97651
   N       -2.12635        -7.47132         6.54382
   C       -3.96493        -2.94429         3.58881
   C       -4.34976        -3.88984         2.64232
   C       -4.89302        -5.16440         2.82221
   C       -5.22469        -5.69382         1.58118
   C       -4.90409        -4.79162         0.56667
   C       -4.32697        -3.56677         1.16402
   C       -5.22348        -5.33564        -0.68139
   C       -5.75557        -6.60100        -0.49553
   C       -5.79419        -6.93060         0.98148
   C       -6.20728        -7.48145        -1.49670
   N       -6.70585        -8.73933        -1.20851
   C       -7.06366        -9.34118        -2.37188
   C       -7.60026       -10.49831        -2.91598
   C       -7.65223       -10.28890        -4.30502
   N       -7.15357        -9.03166        -4.59189
   C       -6.78718        -8.43169        -3.43100
   C       -6.25197        -7.27492        -2.88744
   C       -8.12287       -11.12836        -5.33605
   C       -8.62504       -12.38645        -5.16487
   C       -9.11938       -13.19645        -6.20221
   C       -9.64060       -14.47405        -6.05073
   C      -10.05646       -14.94853        -7.29752
   C       -9.81304       -13.98579        -8.27905
   C       -9.18462       -12.79078        -7.65787
   C      -10.26559       -14.43098        -9.51459
   C      -10.81138       -15.70810        -9.36666
   C      -10.69447       -16.13158        -7.91891
   C      -11.31314       -16.57011       -10.33947
   C      -11.68072       -16.28283       -11.64545
   C      -11.66182       -17.24438       -12.72848
   C      -11.45036       -18.60042       -12.64430
   C      -11.21712       -19.32955       -11.46222
   N      -11.00940       -19.99736       -10.54957
   C      -11.45388       -19.47194       -13.75179
   N      -11.44624       -20.24367       -14.60268
   C      -11.85944       -16.49782       -13.96744
   C      -12.08506       -15.14121       -13.64665
   C      -12.26938       -14.20006       -14.64441
   C      -12.23111       -14.61949       -15.96652
   C      -12.02237       -15.95269       -16.28378
   C      -11.83485       -16.90437       -15.29104
   C      -12.10254       -15.01303       -12.19554
   C      -12.68207       -13.97227       -11.50747
   C      -13.12983       -12.78029       -12.10685
   N      -13.48344       -11.77001       -12.52476
   C      -12.97594       -13.99390       -10.13133
   N      -13.28738       -13.96414        -9.02573
   H       -4.26264        -1.01869         8.62799
   H       -4.16214        -2.48611        10.58995
   H       -3.73742        -4.89355        10.34252
   H       -3.38419        -5.88299         8.11982
   H       -3.88616        -1.93473         3.20662
   H       -5.07215        -5.63847         3.77106
   H       -4.90243        -2.66794         0.93615
   H       -3.30315        -3.39317         0.82568
   H       -5.07975        -4.85625        -1.63132
   H       -5.18112        -7.80423         1.21356
   H       -6.81144        -7.12681         1.32700
   H       -6.77001        -9.13289        -0.28634
   H       -7.92142       -11.38215        -2.40423
   H       -7.08687        -8.64249        -5.51651
   H       -5.93250        -6.38833        -3.39511
   H       -8.07795       -10.71626        -6.33605
   H       -8.66154       -12.80306        -4.16836
   H       -9.71373       -15.00142        -5.11677
   H       -9.79590       -11.89732        -7.79633
   H       -8.19275       -12.58650        -8.06502
   H      -10.17125       -13.89756       -10.44414
   H      -10.10206       -17.04180        -7.81024
   H      -11.68139       -16.33136        -7.49615
   H      -11.35282       -17.61150       -10.04743
   H      -12.42816       -13.15988       -14.41017
   H      -12.36595       -13.89544       -16.75562
   H      -12.00136       -16.25915       -17.31854
   H      -11.67217       -17.93509       -15.55902
*
