# ORCA input file
# SCF done       -215.263369274387          0.000776302850
! CAM-B3LYP def2-SVP def2/J RIJCOSX Grid4 TightSCF
%maxcore 5000
%tddft
    Mode sTDDFT
    Ethresh 5.0
    maxcore 5000
end

%pal
  nprocs 6
  end
* xyz 0 1
   C       -2.75236         0.45430        -4.99769
   C       -2.69440         1.76324        -5.44968
   C       -3.54655         2.73400        -4.94163
   C       -4.49201         2.41770        -3.97895
   C       -4.56570         1.10990        -3.52555
   C       -3.68459         0.12459        -4.02531
   C       -3.93773        -1.13314        -3.33763
   C       -3.28708        -2.31245        -3.57337
   C       -2.32361        -2.49786        -4.58516
   N       -1.53309        -2.74275        -5.38181
   C       -3.46187        -3.52552        -2.87347
   N       -3.49592        -4.54203        -2.33996
   C       -4.95362        -0.86334        -2.32247
   C       -5.46644         0.48363        -2.57137
   C       -6.67672         0.98958        -2.18370
   C       -7.67603         0.26968        -1.49500
   N       -8.56106        -0.26338        -0.99492
   C       -7.12536         2.28826        -2.50502
   N       -7.53620         3.33936        -2.71500
   C       -5.27010        -1.69834        -1.29602
   C       -5.92252        -1.30317        -0.07421
   C       -5.54132        -0.15247         0.55790
   S       -6.29048         0.11451         2.07154
   C       -7.24599        -1.33204         1.86993
   C       -6.92997        -2.02152         0.67690
   C       -7.65389        -3.16053         0.31374
   C       -7.31229        -3.91353        -0.93296
   C       -6.20300        -4.93064        -0.65657
   C       -8.67493        -3.58639         1.17387
   C       -8.92599        -2.87654         2.37329
   C       -8.22999        -1.73913         2.75211
   C       -8.51606        -1.01170         4.02859
   C       -7.66950        -1.57387         5.17196
   S      -10.24516        -3.55422         3.28393
   C      -10.49035        -4.74245         2.06673
   C       -9.62047        -4.66766         1.02889
   C       -9.76747        -5.60328        -0.07800
   S       -8.72504        -7.04504        -0.21577
   C       -9.64172        -7.48043        -1.59584
   C      -10.66458        -6.56396        -1.81464
   N      -10.71532        -5.53993        -0.95316
   C      -11.46911        -6.93877        -3.01929
   C      -10.74432        -8.17241        -3.47548
   C       -9.67847        -8.45396        -2.62339
   S       -8.76018        -9.80080        -3.13857
   C       -9.82101       -10.00858        -4.51631
   C      -10.83005        -9.06627        -4.54129
   C       -9.47760       -11.01104        -5.47064
   C      -10.22942       -11.45369        -6.49289
   C       -9.66854       -12.41430        -7.43330
   C      -10.24099       -13.61344        -7.70778
   S       -9.21721       -14.70617        -8.56695
   C       -7.93135       -13.53005        -8.56660
   C       -8.34165       -12.30454        -7.99642
   C       -7.51915       -11.16950        -8.08198
   C       -8.12641        -9.80042        -7.93227
   C       -7.89539        -8.93592        -9.17221
   C       -6.18873       -11.38806        -8.46110
   C       -5.79789       -12.66249        -8.93756
   C       -6.66110       -13.73506        -9.08303
   C       -6.23851       -15.03686        -9.68848
   C       -5.69403       -15.98283        -8.61638
   S       -4.10589       -12.71380        -9.36894
   C       -3.92195       -11.07560        -8.93444
   C       -5.06367       -10.47461        -8.47468
   C       -5.06955        -9.15612        -7.91603
   C       -4.29521        -8.09156        -8.26111
   C       -3.42077        -7.92638        -9.42301
   C       -3.58075        -8.48019       -10.66306
   C       -4.64070        -9.32820       -11.04981
   N       -5.49840        -9.97125       -11.46021
   C       -2.74012        -8.19528       -11.76065
   N       -2.08302        -8.01745       -12.68452
   C       -2.49308        -6.85356        -9.09973
   C       -2.94445        -6.21276        -7.92311
   C       -2.24437        -5.13809        -7.40058
   C       -1.09986        -4.70702        -8.05310
   C       -0.65753        -5.33712        -9.20781
   C       -1.34770        -6.41488        -9.74367
   C       -4.13699        -6.89104        -7.44316
   C       -4.96488        -6.44012        -6.44802
   C       -4.81621        -5.19425        -5.80500
   N       -4.79429        -4.17809        -5.26964
   C       -6.12497        -7.09540        -5.98671
   N       -7.08144        -7.57435        -5.56632
   H       -2.07853        -0.28409        -5.39932
   H       -1.97057         2.03057        -6.20445
   H       -3.47426         3.74966        -5.29931
   H       -5.14364         3.18194        -3.58815
   H       -4.88012        -2.70487        -1.32773
   H       -4.78504         0.53515         0.22663
   H       -6.99260        -3.21023        -1.70659
   H       -8.19713        -4.42705        -1.30860
   H       -5.32104        -4.45186        -0.23788
   H       -5.91584        -5.43835        -1.57359
   H       -6.53932        -5.67279         0.06280
   H       -9.57424        -1.11827         4.27573
   H       -8.29288         0.04964         3.89894
   H       -7.88910        -2.62845         5.32082
   H       -7.88441        -1.04109         6.09440
   H       -6.61047        -1.46705         4.94793
   H      -11.28581        -5.45284         2.18379
   H      -11.45530        -6.15205        -3.77556
   H      -12.51175        -7.13653        -2.76334
   H      -11.56748        -9.02004        -5.32189
   H       -8.47974       -11.41794        -5.36028
   H      -11.26432       -11.16519        -6.60551
   H      -11.20781       -13.95578        -7.39285
   H       -7.77651        -9.28267        -7.03686
   H       -9.20328        -9.91774        -7.82103
   H       -6.84874        -8.68217        -9.30985
   H       -8.45938        -8.01085        -9.07664
   H       -8.23028        -9.46018       -10.06411
   H       -5.46622       -14.85510       -10.43905
   H       -7.09821       -15.50115       -10.17620
   H       -4.83059       -15.54124        -8.12381
   H       -5.39253       -16.92493        -9.06626
   H       -6.45665       -16.18417        -7.86772
   H       -2.93948       -10.64266        -8.96879
   H       -5.71093        -9.03850        -7.05528
   H       -2.56001        -4.64335        -6.49750
   H       -0.55175        -3.87429        -7.64174
   H        0.24027        -4.99069        -9.69656
   H       -0.98466        -6.90410       -10.63306
*
