# ORCA input file
# SCF done       -182.812687714102          0.000987001767
! CAM-B3LYP def2-SVP def2/J RIJCOSX Grid4 TightSCF
%maxcore 5000
%tddft
    Mode sTDDFT
    Ethresh 5.0
    maxcore 5000
end

%pal
  nprocs 6
  end
* xyz 0 1
   C      -11.25252        -7.94570        10.93381
   C      -11.07421        -9.08728        11.70100
   C      -10.48879       -10.22548        11.16516
   C      -10.06982       -10.25761         9.84351
   C      -10.23976        -9.12293         9.06742
   C      -10.82935        -7.95967         9.61410
   C      -10.86441        -6.92228         8.59186
   C      -11.45590        -5.69258         8.70233
   C      -12.12007        -5.23314         9.85911
   N      -12.67055        -4.79891        10.76782
   C      -11.51663        -4.73544         7.66736
   N      -11.60455        -3.92144         6.86259
   C      -10.15579        -7.45277         7.43593
   C       -9.94371        -8.87446         7.66455
   C       -9.68594        -9.82506         6.71326
   C       -9.78956        -9.61321         5.32273
   N       -9.96058        -9.54307         4.18974
   C       -9.41947       -11.17892         7.00602
   N       -9.16298       -12.28335         7.18463
   C       -9.58389        -6.69613         6.44721
   C       -8.65019        -7.17051         5.55589
   C       -7.76074        -7.52514         4.79878
   C       -6.78277        -8.08768         4.01266
   S       -6.33676        -9.75956         4.26662
   C       -5.15838        -9.65795         2.98886
   C       -5.13957        -8.39951         2.41114
   C       -6.04717        -7.51902         2.98639
   C       -4.38390       -10.76376         2.68997
   C       -3.73580       -11.77748         2.51318
   C       -3.02847       -12.96238         2.37983
   C       -2.03321       -13.16699         1.48620
   C       -1.26552       -14.36089         1.37331
   S       -0.33709       -14.61303        -0.08237
   C        0.24686       -16.16255         0.46313
   C       -0.23641       -16.43086         1.73164
   C       -1.08398       -15.42416         2.24042
   S       -1.82977       -15.54980         3.83888
   C       -0.36675       -15.36375         4.92518
   C        0.37393       -16.66267         5.19742
   C        1.17864       -17.16214         4.00856
   S        0.16534       -17.87949         2.66188
   C        1.09925       -16.91458        -0.39539
   C        1.31118       -18.24693        -0.29548
   C        2.18565       -18.96530        -1.09774
   C        2.93252       -19.68238        -1.73501
   C        3.79103       -20.52663        -2.41561
   S        4.96991       -19.94154        -3.55509
   C        5.55305       -21.56647        -3.81717
   C        4.84732       -22.48477        -3.05759
   C        3.86149       -21.90239        -2.27250
   C        6.60239       -21.84211        -4.66754
   C        7.53472       -22.11196        -5.40321
   C        8.58620       -22.46805        -6.22440
   C        9.09432       -23.73182        -6.24177
   C       10.22010       -24.16922        -6.97869
   C       10.76913       -23.65701        -8.12440
   C       12.14750       -23.89411        -8.54184
   C       13.00443       -24.86080        -8.08656
   C       12.70045       -25.86072        -7.13846
   N       12.53861       -26.70855        -6.38056
   C       14.33000       -25.02140        -8.54414
   N       15.41609       -25.21025        -8.86413
   C       12.46163       -22.88899        -9.54939
   C       11.28574       -22.16917        -9.85819
   C       11.31192       -21.13304       -10.77692
   C       12.51643       -20.82196       -11.38956
   C       13.67040       -21.53422       -11.09585
   C       13.65680       -22.57167       -10.17563
   C       10.18592       -22.73491        -9.09105
   C        8.85951       -22.62030        -9.41379
   C        8.36791       -21.77653       -10.43101
   N        7.90891       -21.09496       -11.23253
   C        7.83032       -23.39067        -8.83449
   N        6.95592       -24.01654        -8.43369
   H      -11.70715        -7.06983        11.36677
   H      -11.39491        -9.08613        12.73153
   H      -10.35639       -11.10026        11.78334
   H       -9.61395       -11.14679         9.43938
   H       -9.79313        -5.63546         6.39934
   H       -4.48005        -8.14814         1.59978
   H       -6.18420        -6.49790         2.67803
   H       -3.32315       -13.74769         3.06240
   H       -1.79191       -12.38906         0.77288
   H        0.28198       -14.61190         4.47513
   H       -0.78315       -14.96746         5.85091
   H       -0.34115       -17.43094         5.49969
   H        1.06336       -16.49500         6.03061
   H        1.79128       -16.37314         3.57168
   H        1.82311       -17.98709         4.31127
   H        1.57447       -16.35708        -1.19232
   H        0.78480       -18.82990         0.44800
   H        5.05980       -23.53829        -3.08860
   H        3.20883       -22.44404        -1.61165
   H        9.02637       -21.67831        -6.82157
   H        8.67568       -24.44926        -5.54836
   H       10.75387       -24.98952        -6.51594
   H       10.42352       -20.56786       -11.00778
   H       12.55385       -20.01344       -12.10346
   H       14.59648       -21.27701       -11.58680
   H       14.56456       -23.10896        -9.95655
*
