# ORCA input file
# SCF done       -191.864395019937          0.000576896969
! CAM-B3LYP def2-SVP def2/J RIJCOSX Grid4 TightSCF
%maxcore 5000
%tddft
    Mode sTDDFT
    Ethresh 5.0
    maxcore 5000
end

%pal
  nprocs 6
  end
* xyz 0 1
   C        0.62351         2.06041         0.10364
   C        1.82583         1.85701         0.76408
   C        2.15226         0.61492         1.28992
   C        1.28227        -0.45920         1.17702
   C        0.07793        -0.26939         0.51920
   C       -0.25205         0.99355        -0.02514
   C       -1.55286         0.90404        -0.67308
   C       -2.26277         1.93977        -1.21736
   C       -1.81679         3.27847        -1.24631
   N       -1.51317         4.38353        -1.30637
   C       -3.54869         1.82412        -1.78735
   N       -4.59611         1.79624        -2.25654
   C       -1.94941        -0.49757        -0.61984
   C       -1.03358        -1.17905         0.28471
   C       -1.25228        -2.36666         0.92863
   C       -2.48587        -3.04896         0.96761
   N       -3.47476        -3.60884         1.13066
   C       -0.30249        -2.99543         1.76267
   N        0.43365        -3.56699         2.43195
   C       -2.86620        -1.08217        -1.44982
   C       -3.02372        -2.43877        -1.61997
   C       -3.17356        -3.62319        -1.87064
   C       -3.26909        -4.98281        -2.05887
   S       -2.14530        -6.06345        -1.27454
   C       -2.93859        -7.43659        -1.99404
   C       -4.01489        -7.05133        -2.77987
   C       -4.19579        -5.67672        -2.82156
   C       -2.47180        -8.71728        -1.77735
   C       -2.02095        -9.83148        -1.58132
   C       -1.51426       -11.10492        -1.40047
   C       -0.33790       -11.32853        -0.75698
   C        0.27197       -12.59995        -0.58045
   C        1.54630       -12.67886         0.04207
   C        2.25252       -13.92212         0.19765
   N        3.45963       -13.95264         0.78581
   C        3.98502       -12.83214         1.21001
   C        3.28977       -11.58603         1.04735
   N        2.11067       -11.54117         0.48068
   C        3.88567       -10.38249         1.50186
   N        4.40087        -9.43043         1.87600
   C        5.25517       -12.85912         1.83935
   N        6.27886       -12.84595         2.35274
   C        1.71084       -15.14211        -0.26775
   C        0.43015       -15.08168        -0.85112
   C       -0.27874       -13.83159        -1.00751
   N       -1.46314       -14.02258        -1.59488
   S       -1.65776       -15.58541        -1.90794
   N       -0.26291       -16.11613        -1.32852
   C        2.44285       -16.31572        -0.18082
   C        3.12235       -17.32376        -0.14064
   C        3.95552       -18.42195        -0.11672
   S        5.59329       -18.26618         0.45708
   C        5.90035       -19.94104         0.08176
   C        4.77582       -20.56189        -0.43975
   C        3.68493       -19.71076        -0.54957
   C        7.15267       -20.48680         0.27459
   C        8.28203       -20.91736         0.41870
   C        9.57623       -21.39061         0.52853
   C        9.95154       -22.63571         0.13444
   C       11.25904       -23.17658         0.24593
   C       12.45880       -22.52455         0.28345
   C       13.69269       -23.11153         0.80317
   C       13.98071       -24.44004         0.95728
   C       13.13755       -25.51108         0.59067
   N       12.51349       -26.43348         0.31158
   C       15.20648       -24.92752         1.46046
   N       16.17792       -25.39057         1.85895
   C       14.58380       -22.00245         1.11694
   C       14.01143       -20.80562         0.62977
   C       14.64706       -19.58942         0.81766
   C       15.85920       -19.57472         1.49095
   C       16.42856       -20.74990         1.96122
   C       15.80033       -21.97304         1.78075
   C       12.76487       -21.13410        -0.04480
   C       12.16444       -20.37195        -1.00953
   C       12.58877       -19.07231        -1.35805
   N       12.88366       -18.00878        -1.67200
   C       11.10823       -20.81891        -1.83095
   N       10.27981       -21.14314        -2.55556
   H        0.38729         3.03048        -0.30188
   H        2.51754         2.67908         0.86632
   H        3.09642         0.47939         1.79474
   H        1.54995        -1.41960         1.58635
   H       -3.47220        -0.45762        -2.09363
   H       -4.62979        -7.76313        -3.30087
   H       -4.97229        -5.17937        -3.37463
   H       -2.07890       -11.93063        -1.81254
   H        0.21822       -10.49111        -0.35779
   H        4.77311       -21.59732        -0.72956
   H        2.72294       -19.99676        -0.93541
   H       10.29130       -20.71031         0.97698
   H        9.18323       -23.31513        -0.20980
   H       11.28504       -24.25086         0.37718
   H       14.20965       -18.66955         0.46457
   H       16.36348       -18.63435         1.65222
   H       17.37370       -20.71425         2.48096
   H       16.25375       -22.87395         2.15992
*
