# ORCA input file
# SCF done       -193.060533731738          0.000736520744
! CAM-B3LYP def2-SVP def2/J RIJCOSX Grid4 TightSCF
%maxcore 5000
%tddft
    Mode sTDDFT
    Ethresh 5.0
    maxcore 5000
end

%pal
  nprocs 6
  end
* xyz 0 1
   C       -3.03670        -1.16586        -0.45370
   C       -2.18153        -2.00726        -1.13262
   C       -1.87194        -1.87640        -2.49783
   N       -1.60143        -1.82440        -3.61383
   C       -1.46290        -3.04689        -0.51338
   N       -0.83768        -3.88476        -0.03785
   C       -3.57926         0.07160        -1.02024
   C       -3.99562         0.90503         0.03170
   C       -4.51410         2.16094        -0.20156
   C       -4.62896         2.59359        -1.51892
   C       -4.22858         1.76378        -2.56914
   C       -3.70178         0.49864        -2.33025
  Cl       -4.37295         2.30719        -4.19220
  Cl       -5.26734         4.15450        -1.85139
   C       -3.79400         0.19881         1.32054
   O       -3.99867         0.62669         2.43414
   C       -3.33705        -1.16251         0.95379
   C       -3.33692        -2.13277         1.93424
   C       -3.40968        -3.52878         1.80099
   C       -3.76066        -4.15742         0.61822
   C       -3.85383        -5.51881         0.42857
   C       -3.48014        -6.46854         1.48321
   C       -3.17906        -6.09135         2.74681
   S       -3.13597        -4.46040         3.27671
   C       -3.49180        -7.74062         0.85216
   C       -3.82063        -7.59811        -0.50452
   C       -3.82982        -8.83829        -1.18327
   C       -3.51676        -9.86346        -0.35133
   S       -3.19685        -9.37489         1.28269
   C       -4.08640        -6.22221        -0.78084
   C       -4.37270        -5.61857        -2.02883
   C       -5.06884        -4.45288        -2.15223
   C       -5.07353        -3.59886        -3.27689
   N       -5.90156        -2.49107        -3.32195
   C       -5.57709        -1.75371        -4.41549
   C       -5.87384        -0.59594        -5.11809
   C       -4.96088        -0.54473        -6.18522
   N       -4.14195        -1.65395        -6.14053
   C       -4.49841        -2.40993        -5.07231
   C       -4.19986        -3.57138        -4.37394
   C       -4.88448         0.46946        -7.16584
   C       -3.93913         0.56105        -8.13935
   C       -3.87610         1.55606        -9.15398
   C       -4.83951         2.51520        -9.39467
   C       -4.78301         3.46063       -10.40950
   C       -3.65299         3.52803       -11.33574
   C       -2.58792         2.69533       -11.29139
   S       -2.42507         1.44041       -10.13794
   C       -3.95485         4.59533       -12.22507
   C       -5.18786         5.16373       -11.89879
   C       -5.51875         6.22519       -12.77162
   C       -4.55400         6.42357       -13.70816
   S       -3.20913         5.34412       -13.57906
   C       -5.72775         4.46331       -10.75489
   C       -6.93814         4.68056       -10.08832
   C       -7.88644         5.61831       -10.41613
   C       -9.07119         5.74677        -9.68989
   C      -10.07151         6.65676        -9.96651
   C      -11.30803         6.81898        -9.24508
   C      -11.74413         6.09889        -8.15737
   C      -12.96999         6.32238        -7.49969
   N      -13.95018         6.44872        -6.91394
   C      -11.05152         5.03861        -7.54101
   N      -10.56105         4.16234        -6.98065
   C      -12.05350         7.90539        -9.88411
   C      -11.30331         8.39138       -10.96789
   C      -10.03254         7.63536       -11.06687
   O       -9.16082         7.81127       -11.89663
   C      -11.75785         9.41922       -11.76620
   C      -12.99576         9.98041       -11.47589
   C      -13.74843         9.50517       -10.39945
   C      -13.28573         8.46692        -9.59701
  Cl      -15.27802        10.20771       -10.04957
  Cl      -13.59868        11.26368       -12.44804
   H       -4.81952         2.79237         0.61761
   H       -3.40983        -0.11622        -3.16544
   H       -3.38204        -1.74095         2.94572
   H       -3.97992        -3.51263        -0.21876
   H       -2.92997        -6.80094         3.52019
   H       -4.05634        -8.96390        -2.22634
   H       -3.44956       -10.90689        -0.59015
   H       -3.97535        -6.09802        -2.91286
   H       -5.65939        -4.11556        -1.30848
   H       -6.63676        -2.29902        -2.66351
   H       -6.62816         0.13622        -4.91190
   H       -3.37535        -1.83468        -6.76395
   H       -3.42926        -4.28639        -4.57591
   H       -5.65619         1.22100        -7.09052
   H       -3.13799        -0.16584        -8.16865
   H       -5.70509         2.50996        -8.74918
   H       -1.76657         2.76162       -11.98683
   H       -6.41048         6.82260       -12.73141
   H       -4.54401         7.15672       -14.49077
   H       -7.14662         4.04177        -9.23782
   H       -7.73344         6.27494       -11.25419
   H       -9.20601         5.07861        -8.84903
   H      -11.16612         9.77694       -12.59388
   H      -13.89568         8.12788        -8.77601
*
