# ORCA input file
# SCF done       -217.509539959432          0.000762931917
! CAM-B3LYP def2-SVP def2/J RIJCOSX Grid4 TightSCF
%maxcore 5000
%tddft
    Mode sTDDFT
    Ethresh 5.0
    maxcore 5000
end

%pal
  nprocs 6
  end
* xyz 0 1
   C       12.60354       -12.79020         6.75341
   C       11.68097       -12.19409         5.93369
   C       11.38140       -10.81780         5.95795
   N       11.08383        -9.70923         5.95738
   C       11.01370       -12.88585         4.90101
   N       10.49825       -13.39867         4.01283
   C       13.57912       -12.08358         7.58123
   C       14.66378       -12.94439         7.83118
   C       15.76453       -12.52875         8.55160
   C       15.77731       -11.22952         9.04513
   C       14.69585       -10.37310         8.81140
   C       13.59296       -10.79053         8.07369
  Cl       14.72027        -8.77640         9.44253
  Cl       17.12909       -10.67672         9.94911
   C       14.39036       -14.27171         7.23305
   O       15.11557       -15.23868         7.20816
   C       12.99817       -14.17997         6.72419
   C       12.31143       -15.32668         6.44759
   C       10.92455       -15.56395         6.38931
   S        9.71391       -14.47185         7.01908
   C        8.44130       -15.58750         6.64192
   C        8.94625       -16.74420         6.06930
   C       10.32591       -16.73569         5.94494
   C        7.09013       -15.27144         6.91614
   C        6.57167       -14.08848         7.40693
   C        5.18801       -14.10507         7.54435
   C        4.61238       -15.30366         7.16738
   S        5.82140       -16.43131         6.62676
   C        3.23996       -15.65578         7.17801
   S        2.01639       -14.51093         7.64237
   C        0.75136       -15.67924         7.37644
   C        1.28658       -16.88505         6.95545
   C        2.67161       -16.87088         6.84299
   C       -0.59984       -15.30483         7.58040
   C       -1.66600       -16.12741         7.41304
   C       -2.99983       -15.69663         7.58592
   S       -4.33611       -16.85737         7.31764
   C       -5.42083       -15.58053         7.66583
   C       -4.71427       -14.40450         7.95684
   N       -3.39268       -14.49337         7.90801
   C       -5.65587       -13.27802         8.24564
   C       -6.98272       -13.95614         8.06450
   C       -6.80149       -15.30356         7.73352
   S       -8.28604       -16.12547         7.50014
   C       -9.17256       -14.64661         7.83183
   C       -8.32018       -13.58963         8.11931
   C      -10.58500       -14.67987         7.73037
   C      -11.41912       -13.62085         7.86842
   C      -12.82237       -13.69294         7.67736
   S      -13.63045       -15.18977         7.29737
   C      -15.16502       -14.37869         7.15466
   C      -15.03270       -13.02819         7.40652
   C      -13.72689       -12.64771         7.70413
   C      -16.32821       -15.09806         6.78329
   C      -16.46374       -16.46282         6.61792
   C      -17.73383       -16.84695         6.20116
   C      -18.60100       -15.78577         6.02878
   S      -17.81781       -14.27629         6.41737
   C      -19.93634       -15.81884         5.56185
   S      -20.71686       -17.31905         5.17715
   C      -22.16148       -16.48875         4.64994
   C      -22.00973       -15.11568         4.79541
   C      -20.77604       -14.74468         5.30575
   C      -23.25053       -17.22731         4.14748
   C      -24.38467       -16.68179         3.61666
   C      -25.42032       -17.48546         3.11105
   C      -26.55771       -17.01076         2.50593
   C      -27.64406       -17.79904         1.96494
   C      -27.79161       -19.16209         2.01886
   C      -28.88783       -19.86245         1.47323
   N      -29.74741       -20.49597         1.05138
   C      -26.89330       -20.06389         2.62630
   N      -26.22083       -20.86608         3.09970
   C      -28.59535       -16.87435         1.34833
   C      -28.13164       -15.55987         1.52539
   C      -26.84976       -15.58086         2.26502
   O      -26.19418       -14.61166         2.58775
   C      -28.82597       -14.47025         1.04230
   C      -30.01586       -14.69625         0.36173
   C      -30.48554       -16.00093         0.17971
   C      -29.78246       -17.09630         0.66993
  Cl      -31.95683       -16.26791        -0.66612
  Cl      -30.90945       -13.36672        -0.25832
   H       16.59335       -13.19648         8.72586
   H       12.77418       -10.10820         7.91188
   H       12.93076       -16.21439         6.35441
   H        8.31084       -17.55486         5.75983
   H       10.89676       -17.54313         5.52218
   H        7.19371       -13.24402         7.64581
   H        4.60491       -13.27680         7.90555
   H        0.68400       -17.74637         6.73270
   H        3.26301       -17.71251         6.52739
   H       -0.78869       -14.28400         7.88079
   H       -1.53366       -17.15923         7.12322
   H       -5.51592       -12.44768         7.55126
   H       -5.52318       -12.89063         9.25748
   H       -8.67273       -12.60164         8.35193
   H      -11.01595       -15.64397         7.48973
   H      -11.02773       -12.64112         8.10390
   H      -15.86845       -12.35170         7.36920
   H      -13.43418       -11.63634         7.92344
   H      -15.65242       -17.14585         6.79641
   H      -18.02785       -17.86483         6.01529
   H      -22.78220       -14.41565         4.53454
   H      -20.47252       -13.72814         5.48455
   H      -23.15482       -18.30629         4.17477
   H      -24.49940       -15.61104         3.55929
   H      -25.28967       -18.55629         3.20035
   H      -28.45088       -13.46977         1.18951
   H      -30.17623       -18.08616         0.50814
*
