# ORCA input file
# SCF done       -203.878544554692          0.000735948888
! CAM-B3LYP def2-SVP def2/J RIJCOSX Grid4 TightSCF
%maxcore 5000
%tddft
    Mode sTDDFT
    Ethresh 5.0
    maxcore 5000
end

%pal
  nprocs 6
  end
* xyz 0 1
   C        2.87599        -2.76556         2.12940
   C        2.94677        -4.05619         2.58332
   C        4.11808        -4.84050         2.53486
   N        5.03978        -5.52264         2.49153
   C        1.88813        -4.70774         3.25369
   N        1.09576        -5.25519         3.87755
   C        4.00888        -1.93511         1.72813
   C        3.62307        -0.58250         1.78943
   C        4.50896         0.43514         1.49917
   C        5.80572         0.09691         1.13056
   C        6.19308        -1.24690         1.05890
   C        5.30075        -2.27039         1.36059
  Cl        7.79507        -1.64851         0.59266
  Cl        6.93562         1.33490         0.76061
   C        2.19885        -0.48905         2.18222
   O        1.54585         0.50563         2.38695
   C        1.72067        -1.89861         2.21551
   C        0.38801        -2.18017         2.23306
   C       -0.24777        -3.39315         1.87310
   C       -1.49591        -3.80108         2.28914
   C       -1.77666        -5.08174         1.72772
   C       -0.63110        -5.38364         0.87094
   C        0.28682        -4.40765         0.95795
   F       -0.54868        -6.48272         0.11392
   C       -2.85855        -5.89802         1.97545
   C       -3.11255        -7.20084         1.47664
   C       -4.27521        -7.68696         2.05423
   C       -4.80646        -6.65245         2.94929
   C       -3.97546        -5.60386         2.88602
   F       -4.10784        -4.44699         3.53621
   C       -4.89337        -8.94009         1.89932
   C       -4.53235        -9.88998         0.97929
   C       -5.12393       -11.15445         0.86235
   S       -4.79912       -12.17034        -0.52914
   C       -5.84263       -13.46743        -0.00387
   C       -6.40579       -13.12946         1.24318
   C       -6.00468       -11.84123         1.70550
   N       -6.58796       -11.62182         2.90786
   C       -7.34359       -12.72411         3.21801
   N       -8.05928       -12.74910         4.43179
   O       -7.95231       -11.75838         5.13639
   O       -8.71900       -13.73290         4.68690
   C       -7.26545       -13.67260         2.21972
   C       -6.03780       -14.60191        -0.79802
   C       -5.53253       -14.81423        -2.07601
   C       -6.00395       -16.05544        -2.55908
   C       -6.81657       -16.61015        -1.46992
   C       -6.85011       -15.76293        -0.43039
   F       -7.42809       -17.79393        -1.53760
   C       -5.80916       -16.62820        -3.80222
   C       -6.34091       -17.84501        -4.30008
   C       -5.95405       -18.00307        -5.62115
   C       -5.12045       -16.85430        -5.99362
   C       -5.04100       -16.06054        -4.91514
   F       -4.37387       -14.90474        -4.82405
   C       -6.33351       -19.07232        -6.45430
   C       -6.02508       -19.18327        -7.78248
   C       -6.47982       -20.26950        -8.55339
   C       -6.26148       -20.42427        -9.89808
   C       -6.72432       -21.51430       -10.73417
   C       -7.41181       -22.63138       -10.33535
   C       -7.82836       -23.65917       -11.20890
   N       -8.20016       -24.52724       -11.86097
   C       -7.79716       -22.93345        -9.01181
   N       -8.14894       -23.25482        -7.96707
   C       -6.31432       -21.22156       -12.10658
   C       -5.60159       -20.01001       -12.12222
   C       -5.52468       -19.45961       -10.75262
   O       -4.97445       -18.43265       -10.41898
   C       -5.08968       -19.48015       -13.28898
   C       -5.29498       -20.17483       -14.47441
   C       -6.00523       -21.38137       -14.46939
   C       -6.51749       -21.91213       -13.29042
  Cl       -6.25551       -22.22917       -15.94086
  Cl       -4.67705       -19.54919       -15.94816
   H        4.20058         1.46692         1.55844
   H        5.62905        -3.29506         1.29384
   H       -0.26215        -1.35169         2.49587
   H       -2.12516        -3.27777         2.98179
   H        1.21084        -4.33759         0.41795
   H       -2.47721        -7.72291         0.78954
   H       -5.70502        -6.74119         3.52822
   H       -5.73879        -9.13070         2.54593
   H       -3.75994        -9.65433         0.26158
   H       -6.48835       -10.84044         3.53848
   H       -7.77036       -14.61561         2.23200
   H       -4.90510       -14.13282        -2.61703
   H       -7.35990       -15.90421         0.49937
   H       -6.95981       -18.52386        -3.74659
   H       -4.66385       -16.69597        -6.95002
   H       -6.93528       -19.84763        -5.99375
   H       -5.43651       -18.42341        -8.27242
   H       -7.05607       -21.02297        -8.03167
   H       -4.54546       -18.54903       -13.27732
   H       -7.05930       -22.84273       -13.32790
*
