# ORCA input file
# SCF done       -258.086361434691          0.000850313113
! CAM-B3LYP def2-SVP def2/J RIJCOSX Grid4 TightSCF
%maxcore 5000
%tddft
    Mode sTDDFT
    Ethresh 5.0
    maxcore 5000
end

%pal
  nprocs 6
  end
* xyz 0 1
   C       -0.20200        -0.38144        -6.17765
   C       -0.96735         0.78123        -6.25285
   C       -0.29034         2.06727        -6.55241
   O        0.64563         2.14583        -7.32267
   C       -0.79709         3.25215        -5.83601
   C       -1.50630         3.25207        -4.66481
   S       -1.87262         4.83051        -4.12065
   C       -1.07475         5.52231        -5.48620
   C       -0.53453         4.58095        -6.29718
   C        0.19716         4.86099        -7.57426
   O       -0.40740         5.09172        -8.59642
   C        1.67144         4.84878        -7.48224
   C        2.33928         4.76964        -6.26162
   C        3.72041         4.75789        -6.23041
   C        4.44564         4.82043        -7.41020
   C        3.78769         4.89947        -8.62756
   C        2.40778         4.91621        -8.66442
   C       -2.34787         0.70081        -6.07959
   C       -2.93903        -0.50915        -5.78495
   C       -2.16648        -1.66734        -5.66063
   C       -0.79030        -1.59158        -5.87691
   C       -2.81398        -2.91158        -5.27559
   C       -2.82326        -4.13843        -5.90274
   N       -2.19335        -4.51282        -7.10410
   O       -2.42758        -5.63376        -7.52597
   O       -1.46078        -3.71419        -7.66054
   C       -3.70231        -5.03865        -5.18650
   C       -4.26785        -4.35930        -4.16429
   C       -3.74668        -3.01339        -4.15991
   C       -3.98656        -2.03409        -3.20612
   C       -3.05892        -1.06048        -2.74438
   C       -3.55321        -0.47802        -1.60479
   C       -4.84432        -1.00013        -1.33645
   N       -5.64492        -0.56493        -0.27792
   O       -5.18687         0.29029         0.46438
   O       -6.75763        -1.06083        -0.13603
   C       -5.17562        -1.93426        -2.34361
   C       -6.43303        -2.47968        -2.59334
   C       -6.79709        -2.98848        -3.82678
   C       -7.93467        -3.67753        -4.22781
   N       -9.03210        -4.14422        -3.53979
   C       -9.36181        -3.92128        -2.15063
   C       -9.96239        -2.53778        -1.92049
   C       -9.89899        -4.86943        -4.37008
   O      -10.93544        -5.37431        -3.98219
   C       -9.26015        -4.86131        -5.67759
   C       -8.08787        -4.13105        -5.55937
   C       -7.39707        -4.12680        -6.84114
   O       -6.35537        -3.61495        -7.18339
   N       -8.23653        -4.87462        -7.67629
   C       -7.86855        -5.16016        -9.04545
   C       -7.24935        -6.54741        -9.18408
   C       -9.35570        -5.33472        -7.02216
   C      -10.35144        -6.08576        -7.62836
   C      -11.46454        -6.52589        -6.92885
   C      -12.56702        -7.22572        -7.40542
   C      -13.05195        -7.53192        -8.72835
   N      -12.48020        -7.34387        -9.98688
   O      -13.24113        -7.37187       -10.94981
   O      -11.27537        -7.17130       -10.10793
   C      -14.33473        -8.07173        -8.61363
   C      -14.68920        -8.12332        -7.26713
   C      -13.63403        -7.62098        -6.50692
   C      -13.60818        -7.55829        -5.08120
   C      -12.56999        -7.85750        -4.23175
   C      -13.02234        -7.77017        -2.89635
   C      -14.35275        -7.41704        -2.87895
   N      -15.09678        -7.32975        -1.70149
   O      -16.31455        -7.18754        -1.77748
   O      -14.50031        -7.43046        -0.64271
   C      -14.78180        -7.19719        -4.25835
   C      -15.84261        -6.59040        -4.81487
   C      -17.12258        -6.09269        -4.23113
   C      -18.16409        -7.15967        -4.46031
   C      -18.96459        -6.75909        -5.52204
   C      -18.48640        -5.39921        -5.97075
   O      -17.60531        -4.97283        -4.99135
   C      -19.53893        -4.39904        -6.31443
   C      -20.54829        -3.77227        -5.68126
   S      -21.37680        -2.71573        -6.77499
   C      -20.35601        -3.13075        -8.08477
   C      -19.40528        -4.04854        -7.69989
   C      -18.29379        -4.78237        -8.20372
   O      -17.77241        -5.54952        -7.24853
   C      -17.70104        -4.80440        -9.49855
   C      -16.54202        -5.57608        -9.71657
   C      -15.94869        -5.61431       -10.95923
   C      -16.49279        -4.88452       -12.00914
   C      -17.63494        -4.11748       -11.81032
   C      -18.23890        -4.07356       -10.57339
   C      -19.99233        -7.54761        -5.99451
   C      -20.20691        -8.76503        -5.36375
   C      -19.41426        -9.16488        -4.29756
   C      -18.37531        -8.36975        -3.83461
   H        0.86242        -0.31362        -6.34439
   H       -1.81070         2.40694        -4.07916
   H       -1.04391         6.58762        -5.59851
   H        1.77959         4.71943        -5.33889
   H        4.23639         4.69606        -5.28325
   H        5.52539         4.80488        -7.37932
   H        4.35393         4.94496        -9.54607
   H        1.87261         4.97123        -9.60037
   H       -2.96007         1.58165        -6.20297
   H       -4.01084        -0.57222        -5.66933
   H       -0.18583        -2.48092        -5.79707
   H       -3.84464        -6.06570        -5.46140
   H       -4.92211        -4.75609        -3.41251
   H       -2.08139        -0.90512        -3.15788
   H       -3.06744         0.25544        -0.98860
   H       -7.15153        -2.40006        -1.79019
   H       -6.10659        -2.83726        -4.64780
   H       -8.46703        -4.06724        -1.54117
   H      -10.09781        -4.68637        -1.88695
   H       -9.28822        -1.75415        -2.25714
   H      -10.15175        -2.39510        -0.86083
   H      -10.90154        -2.44486        -2.46082
   H       -7.13603        -4.39971        -9.32829
   H       -8.74841        -5.06639        -9.68589
   H       -6.35917        -6.62517        -8.56446
   H       -6.96582        -6.71546       -10.21862
   H       -7.95688        -7.31837        -8.88902
   H      -10.24564        -6.33478        -8.67216
   H      -11.49892        -6.29558        -5.87117
   H      -14.92472        -8.41669        -9.44237
   H      -15.59414        -8.55321        -6.87836
   H      -11.58552        -8.17307        -4.51890
   H      -12.43317        -7.97062        -2.02057
   H      -15.81084        -6.44624        -5.88895
   H      -17.04469        -5.78556        -3.18765
   H      -20.86093        -3.84462        -4.65974
   H      -20.52561        -2.67218        -9.03699
   H      -16.12560        -6.13534        -8.89268
   H      -15.06331        -6.21170       -11.12137
   H      -16.02471        -4.91275       -12.98077
   H      -18.05307        -3.55301       -12.62989
   H      -19.12853        -3.48517       -10.42850
   H      -20.60889        -7.22920        -6.82179
   H      -21.00523        -9.40521        -5.70642
   H      -19.60930       -10.11233        -3.81912
   H      -17.76236        -8.66245        -2.99852
*
