# ORCA input file
# SCF done       -179.715253607244          0.000532298100
! CAM-B3LYP def2-SVP def2/J RIJCOSX Grid4 TightSCF
%maxcore 5000
%tddft
    Mode sTDDFT
    Ethresh 5.0
    maxcore 5000
end

%pal
  nprocs 6
  end
* xyz 0 1
   C        1.65501        -1.03480        -0.25235
   C        2.01059        -2.18024        -0.90391
   C        2.72254        -2.20106        -2.12294
   N        3.29600        -2.26734        -3.11394
   C        1.81484        -3.47489        -0.37411
   N        1.75581        -4.53766         0.05381
   C        2.09145         0.31511        -0.59545
   C        1.95074         1.14498         0.53414
   C        2.33495         2.47144         0.51012
   C        2.86232         2.98467        -0.66787
   C        2.99216         2.16828        -1.80004
   C        2.61151         0.83131        -1.77086
  Cl        3.63209         2.82161        -3.25049
  Cl        3.35459         4.62658        -0.73596
   C        1.34928         0.37938         1.64413
   O        1.12822         0.74113         2.77332
   C        1.00719        -0.94703         1.04648
   C        0.11817        -1.75585         1.66710
   C       -0.58260        -2.85055         1.08953
   S       -1.31494        -4.11324         2.06227
   C       -1.86822        -4.78709         0.53345
   N       -1.51212        -4.05588        -0.48776
   N       -0.80871        -3.01141        -0.18649
   C       -2.60166        -6.00232         0.47566
   C       -3.08146        -6.49228        -0.69355
   C       -3.81564        -7.68431        -0.92942
   N       -4.01935        -8.76741        -0.10311
   C       -3.50944        -9.00474         1.22634
   C       -4.45318        -8.46364         2.29875
   C       -4.81890        -9.74972        -0.71769
   O       -5.11440       -10.79983        -0.18177
   C       -5.12476        -9.20889        -2.02218
   C       -4.48170        -7.95421        -2.12370
   C       -4.79019        -7.39208        -3.42391
   O       -4.47821        -6.35369        -3.95934
   N       -5.61883        -8.36553        -4.02637
   C       -6.10295        -8.20360        -5.37633
   C       -5.30157        -9.04106        -6.36957
   C       -5.82539        -9.44574        -3.20661
   C       -6.64736       -10.55144        -3.54204
   C       -6.79591       -11.61937        -2.71835
   C       -7.65351       -12.70402        -3.03485
   S       -7.82263       -14.09775        -1.98105
   C       -8.99132       -14.68322        -3.16298
   N       -9.13878       -13.85724        -4.16522
   N       -8.41378       -12.78768        -4.09874
   C       -9.67989       -15.91233        -2.99419
   C      -10.65693       -16.34311        -3.83166
   C      -11.32085       -17.57281        -3.59796
   C      -12.35301       -18.06729        -4.33962
   C      -13.05847       -19.31998        -4.12121
   C      -12.78014       -20.27149        -3.17686
   C      -13.50589       -21.47368        -3.02395
   N      -14.05043       -22.46690        -2.84101
   C      -11.73841       -20.21169        -2.22548
   N      -10.91871       -20.24770        -1.42225
   C      -14.12943       -19.39940        -5.11119
   C      -14.08242       -18.25871        -5.93158
   C      -12.97309       -17.37930        -5.50482
   O      -12.65548       -16.32495        -6.00434
   C      -14.98244       -18.06250        -6.95944
   C      -15.95724       -19.02805        -7.17628
   C      -16.01249       -20.16791        -6.36388
   C      -15.10315       -20.36153        -5.33038
  Cl      -17.22276       -21.35305        -6.64037
  Cl      -17.09701       -18.82153        -8.44177
   H        2.22835         3.09099         1.38658
   H        2.71829         0.23052        -2.65950
   H       -0.14076        -1.49981         2.68825
   H       -2.76054        -6.48795         1.42429
   H       -2.92755        -5.89470        -1.58354
   H       -2.50765        -8.57951         1.31054
   H       -3.43856       -10.09148         1.33577
   H       -4.64965        -7.40293         2.15730
   H       -4.01983        -8.61532         3.28355
   H       -5.40049        -8.99479         2.25125
   H       -5.98665        -7.14200        -5.61171
   H       -7.16457        -8.46171        -5.41851
   H       -4.25424        -8.75044        -6.34141
   H       -5.67988        -8.87837        -7.37472
   H       -5.37537       -10.10068        -6.13544
   H       -7.18473       -10.54043        -4.47891
   H       -6.26500       -11.67035        -1.77758
   H       -9.39758       -16.50583        -2.13397
   H      -10.94088       -15.73861        -4.67996
   H      -10.97120       -18.14577        -2.74814
   H      -14.92716       -17.17913        -7.57585
   H      -15.17904       -21.25064        -4.72643
*
