# ORCA input file
# SCF done       -198.291258405593          0.000769154513
! CAM-B3LYP def2-SVP def2/J RIJCOSX Grid4 TightSCF
%maxcore 5000
%tddft
    Mode sTDDFT
    Ethresh 5.0
    maxcore 5000
end

%pal
  nprocs 6
  end
* xyz 0 1
   C       -1.32094        -0.28337         2.08178
   C       -2.53732        -0.87156         1.87394
   C       -3.71191        -0.52084         2.57644
   N       -4.69638        -0.27039         3.10814
   C       -2.79996        -1.81561         0.85806
   N       -3.08931        -2.54124         0.01745
   C       -1.08470         0.87737         2.93898
   C        0.11747         1.49893         2.54689
   C        0.57107         2.64962         3.15466
   C       -0.19551         3.20319         4.18564
   C       -1.38512         2.57894         4.59354
   C       -1.82767         1.41082         3.97866
   C       -2.21219         3.12171         5.71490
   O       -2.90273         2.43493         6.42121
   O       -2.09188         4.44279         5.82004
   C       -2.81674         5.07217         6.86873
   C        0.29560         4.37142         4.81988
   N        0.77425         5.29772         5.29445
   C        0.75142         0.71187         1.46455
   O        1.76321         0.96253         0.85661
   C       -0.10292        -0.50024         1.31950
   C        0.36196        -1.57676         0.64113
   C       -0.17098        -2.90550         0.66752
   C       -0.18486        -3.74463        -0.45855
   N       -0.71095        -4.94314        -0.44518
   C       -1.27750        -5.36534         0.69008
   N       -1.22647        -4.68498         1.83738
   C       -0.67275        -3.50660         1.83982
   C       -1.96966        -6.62531         0.74033
   N       -2.36306        -7.36686        -0.33994
   C       -2.14116        -7.07887        -1.73656
   C       -0.76548        -7.55449        -2.19278
   C       -3.04839        -8.53292         0.05497
   O       -3.49684        -9.34334        -0.72846
   C       -3.05512        -8.47145         1.50066
   C       -2.38523        -7.28226         1.89061
   C       -2.35868        -7.23689         3.34237
   O       -1.90365        -6.45379         4.14059
   N       -3.04069        -8.41763         3.72717
   C       -3.20565        -8.75806         5.11955
   C       -2.17107        -9.78203         5.58051
   C       -3.45101        -9.15455         2.64705
   C       -4.15507       -10.38805         2.76011
   C       -4.63636       -11.06881         1.70042
   C       -5.34050       -12.32442         1.86087
   N       -5.34020       -12.90670         3.06827
   C       -5.95522       -14.06673         3.17755
   C       -6.59612       -14.67576         2.10768
   C       -6.58029       -13.97776         0.89253
   N       -5.94175       -12.81439         0.78521
   C       -7.26405       -14.48608        -0.27882
   C       -7.42552       -13.75431        -1.40196
   C       -8.12692       -14.26738        -2.52737
   C       -8.43039       -13.56039        -3.65060
   C       -9.13782       -14.04692        -4.82572
   C       -9.59003       -15.31804        -5.05239
   C      -10.26115       -15.72798        -6.22661
   N      -10.80921       -16.13351        -7.14926
   C       -9.45577       -16.41059        -4.16717
   N       -9.39411       -17.34860        -3.50845
   C       -9.27594       -12.92554        -5.75358
   C       -8.66198       -11.78915        -5.19628
   C       -8.10991       -12.12087        -3.86180
   O       -7.54377       -11.36241        -3.11268
   C       -8.63469       -10.57771        -5.85235
   C       -9.24233       -10.49096        -7.10870
   C       -9.86637       -11.61775        -7.66989
   C       -9.88342       -12.83634        -6.99627
   C      -10.50559       -11.48297        -9.01099
   O      -10.38027       -10.51892        -9.72116
   O      -11.23235       -12.55598        -9.32826
   C      -11.87943       -12.51776       -10.59303
   C       -9.21519        -9.23451        -7.76653
   N       -9.13798        -8.16966        -8.18184
   H        1.49569         3.11135         2.84250
   H       -2.73393         0.95103         4.34104
   H       -2.39043         6.06636         6.97324
   H       -2.71220         4.50350         7.79432
   H       -3.87464         5.13373         6.60608
   H        1.26858        -1.41911         0.06554
   H        0.21745        -3.41130        -1.40643
   H       -0.58674        -3.01702         2.80218
   H       -2.24369        -6.00506        -1.89917
   H       -2.91960        -7.61630        -2.28526
   H        0.01218        -7.02123        -1.65288
   H       -0.64775        -7.36551        -3.25574
   H       -0.66011        -8.62185        -2.01376
   H       -4.22080        -9.12682         5.28802
   H       -3.07028        -7.82627         5.67594
   H       -2.25953       -10.70816         5.01723
   H       -2.31390        -9.99858         6.63552
   H       -1.16901        -9.38435         5.44015
   H       -4.31834       -10.79673         3.74723
   H       -4.52944       -10.70990         0.68659
   H       -5.93288       -14.52311         4.15958
   H       -7.09267       -15.62690         2.20835
   H       -7.67391       -15.48588        -0.20401
   H       -7.02385       -12.75200        -1.43825
   H       -8.44330       -15.30111        -2.45924
   H       -8.15707        -9.71936        -5.40452
   H      -10.37047       -13.67779        -7.45982
   H      -11.14614       -12.37492       -11.38902
   H      -12.59661       -11.69519       -10.62531
   H      -12.38494       -13.47357       -10.70074
*
