# ORCA input file
# SCF done       -193.797064398155          0.000887050469
! CAM-B3LYP def2-SVP def2/J RIJCOSX Grid4 TightSCF
%maxcore 5000
%tddft
    Mode sTDDFT
    Ethresh 5.0
    maxcore 5000
end

%pal
  nprocs 6
  end
* xyz 0 1
   C       -2.42742         1.23778        -1.75264
   C       -3.31750         1.49649        -2.75846
   C       -4.38126         0.63576        -3.10169
   N       -5.26188        -0.02930        -3.41570
   C       -3.21933         2.61220        -3.61445
   N       -3.14240         3.47924        -4.36370
   C       -2.32067         0.00711        -0.98639
   C       -1.02295        -0.05348        -0.39505
   C       -0.63538        -1.11751         0.36851
   C       -1.54357        -2.17817         0.58451
   C       -2.84658        -2.11361         0.00950
   C       -3.22030        -1.00383        -0.78117
   C       -3.74586        -3.17385         0.24373
   C       -3.37804        -4.24845         1.00650
   C       -2.09477        -4.31251         1.57025
   C       -1.19738        -3.30026         1.36332
   C       -0.27479         1.17069        -0.72392
   O        0.87192         1.45256        -0.46724
   C       -1.27087         2.04817        -1.40897
   C       -1.08636         3.38375        -1.47372
   C       -2.06741         4.38792        -1.76189
   C       -3.32998         4.56165        -1.21827
   N       -3.99894         3.77600        -0.26462
   O       -3.50387         2.71161         0.08274
   O       -5.05337         4.20408         0.17121
   C       -3.90215         5.78942        -1.71782
   C       -3.00356         6.38375        -2.53317
   C       -1.82096         5.55960        -2.60440
   C       -0.74409         5.71986        -3.44853
   C        0.08850         4.67633        -3.95081
   C        0.76279         5.13659        -5.04316
   C        0.45719         6.52076        -5.23776
   N        1.02226         7.28023        -6.26575
   O        1.83295         6.73174        -6.99439
   O        0.67492         8.45033        -6.40730
   C       -0.41308         6.93971        -4.22332
   C       -0.75241         8.26790        -3.95010
   C       -1.22226         8.79081        -2.76864
   C       -1.56376        10.14709        -2.64269
   N       -1.51756        11.02782        -3.67975
   C       -1.94085        12.24923        -3.29130
   C       -2.28582        12.16124        -1.92498
   C       -2.05026        10.86446        -1.52474
   C       -1.99883        13.34070        -4.21311
   C       -2.46942        14.60594        -3.85481
   N       -2.66025        15.60102        -4.69516
   C       -2.36484        15.48004        -5.98462
   C       -1.72181        14.29046        -6.46526
   C       -1.57808        13.19546        -5.57247
   N       -1.03606        12.03985        -6.01473
   C       -0.63323        11.96718        -7.25617
   C       -0.72380        13.07937        -8.11531
   N       -1.25077        14.20660        -7.72017
   C       -2.75705        16.57620        -6.81776
   C       -2.79608        16.56294        -8.17385
   C       -3.25352        17.68103        -8.91596
   C       -3.40508        17.69325       -10.27164
   C       -3.87859        18.80034       -11.08710
   C       -4.19809        20.06158       -10.65608
   C       -4.65069        21.09607       -11.50318
   N       -5.02321        21.98129       -12.13189
   C       -4.12271        20.52573        -9.32574
   N       -4.09060        20.98720        -8.27462
   C       -3.94775        18.33923       -12.46905
   C       -3.50549        16.98664       -12.52212
   C       -3.14341        16.53155       -11.17050
   O       -2.73280        15.43205       -10.86620
   C       -3.46270        16.28483       -13.69262
   C       -3.86997        16.91467       -14.88919
   C       -4.31637        18.26738       -14.84564
   C       -4.34824        18.96877       -13.61880
   C       -4.72431        18.88615       -16.04507
   C       -4.69326        18.20341       -17.23049
   C       -4.25311        16.87179       -17.27198
   C       -3.84997        16.24111       -16.12629
   H        0.35098        -1.14906         0.80726
   H       -4.21680        -0.96852        -1.19292
   H       -4.73169        -3.12025        -0.19408
   H       -4.07401        -5.05545         1.18021
   H       -1.82154        -5.16755         2.17036
   H       -0.20859        -3.34448         1.79600
   H       -0.08879         3.74175        -1.23377
   H       -4.89101         6.12078        -1.46614
   H       -3.16674         7.26262        -3.12409
   H        0.07329         3.66145        -3.60628
   H        1.41739         4.57838        -5.68619
   H       -0.52980         8.95319        -4.75763
   H       -1.32348         8.17231        -1.88897
   H       -1.18698        10.88841        -4.63677
   H       -2.66100        12.95899        -1.31616
   H       -2.20950        10.45216        -0.54811
   H       -2.73918        14.81666        -2.82927
   H       -0.20528        11.02344        -7.56592
   H       -0.35030        13.04910        -9.12868
   H       -3.10157        17.44572        -6.27101
   H       -2.48786        15.68226        -8.71680
   H       -3.50785        18.56767        -8.34873
   H       -3.12275        15.25984       -13.70370
   H       -4.69330        19.99029       -13.62188
   H       -5.06221        19.91138       -16.00843
   H       -5.00795        18.68587       -18.14361
   H       -4.23540        16.34839       -18.21615
   H       -3.51044        15.21600       -16.15177
*
