# ORCA input file
# SCF done       -214.503772969044          0.000916427868
! CAM-B3LYP def2-SVP def2/J RIJCOSX Grid4 TightSCF
%maxcore 5000
%tddft
    Mode sTDDFT
    Ethresh 5.0
    maxcore 5000
end

%pal
  nprocs 6
  end
* xyz 0 1
   C       -1.10059        15.25861         6.13105
   C       -2.28961        14.78124         5.62746
   C       -3.52819        14.86759         6.29340
   N       -4.56486        14.91890         6.78284
   C       -2.39012        14.24424         4.33436
   N       -2.45626        13.77741         3.28761
   C       -0.96254        16.04992         7.35026
   C        0.31632        16.67856         7.34231
   C        0.71938        17.50543         8.35151
   C       -0.15207        17.73610         9.43982
   C       -1.42571        17.09737         9.46212
   C       -1.81853        16.25129         8.39746
   C       -2.28123        17.32942        10.55711
   C       -1.90052        18.15443        11.58131
   C       -0.64753        18.78378        11.55772
   C        0.20838        18.57920        10.50919
   C        1.04278        16.26571         6.13645
   O        2.12959        16.62845         5.74672
   C        0.17275        15.23334         5.47303
   C        0.79000        14.50700         4.48549
   C        0.60089        13.27890         3.83153
   C       -0.29837        12.21351         3.97016
   N       -1.10746        11.88061         5.06606
   O       -1.79518        10.88092         4.99126
   O       -1.05503        12.60119         6.05760
   C       -0.15277        11.31822         2.86039
   C        0.80878        11.79943         2.02933
   C        1.39330        12.96674         2.62564
   C        2.60303        13.52607         2.24852
   C        3.61671        14.01145         3.13135
   C        4.78539        14.14731         2.43868
   C        4.55287        13.84009         1.06537
   N        5.55454        13.94508         0.08855
   O        6.66473        14.28555         0.46032
   O        5.27925        13.68417        -1.07495
   C        3.20859        13.48397         0.89673
   C        2.55220        13.32825        -0.33060
   C        1.19245        13.35517        -0.51448
   C        0.58476        13.19500        -1.76778
   S        1.56684        13.29169        -3.20191
   C        0.22368        13.06134        -4.26029
   C       -0.95571        12.80557        -3.52431
   C       -0.76539        12.92946        -2.11005
   C       -1.87708        12.64149        -1.28433
   N       -1.85107        12.76642         0.15672
   O       -1.34797        13.76614         0.62163
   O       -2.34930        11.86548         0.78726
   C       -3.06474        12.20227        -1.82647
   C       -3.21120        12.03744        -3.20587
   C       -2.17103        12.33377        -4.04773
   C        0.46133        13.09946        -5.64974
   S        2.03505        12.63983        -6.21618
   C        1.61269        12.93303        -7.87329
   C        0.27222        13.39724        -7.97221
   C       -0.37163        13.52872        -6.70609
   C       -1.63352        14.13407        -6.62173
   C       -2.28854        14.50372        -7.77667
   C       -3.56686        15.10500        -7.69736
   N       -4.60449        15.58120        -7.60597
   C       -1.68688        14.28380        -9.04751
   C       -2.39810        14.64248       -10.21782
   N       -2.97512        14.93057       -11.16392
   C       -0.41592        13.75667        -9.13999
   C        2.45086        12.78115        -8.98318
   C        3.78552        12.46223        -9.03917
   C        4.60166        12.37903       -10.23618
   C        4.17678        12.48383       -11.53657
   C        5.02931        12.37601       -12.65581
   N        5.66717        12.29691       -13.60657
   C        2.84430        12.70182       -11.94189
   N        1.77711        12.87977       -12.32903
   C        5.97833        12.14850        -9.80938
   C        6.00441        12.05675        -8.38641
   C        4.64300        12.22009        -7.87459
   O        4.28467        12.16803        -6.70725
   C        7.16261        11.85683        -7.69127
   C        8.37687        11.73820        -8.40317
   C        8.36213        11.82635        -9.82580
   C        7.14481        12.03227       -10.51704
   C        9.58010        11.70963       -10.52473
   C       10.75714        11.51650        -9.85254
   C       10.77019        11.43091        -8.45265
   C        9.60464        11.53880        -7.74255
   H        1.69081        17.97639         8.32228
   H       -2.78334        15.77184         8.44633
   H       -3.24602        16.84423        10.57079
   H       -2.56405        18.32596        12.41555
   H       -0.36291        19.43068        12.37397
   H        1.17510        19.06066        10.48542
   H        1.69843        15.01383         4.16552
   H       -0.73631        10.42449         2.74794
   H        1.18093        11.31862         1.14476
   H        3.52306        14.10432         4.19564
   H        5.74279        14.43247         2.83229
   H        3.19662        13.23200        -1.19769
   H        0.55850        13.55672         0.33495
   H       -3.88269        11.97173        -1.16084
   H       -4.14278        11.66513        -3.60020
   H       -2.26258        12.16268        -5.10807
   H       -2.08437        14.33679        -5.66279
   H        0.02820        13.63575       -10.11655
   H        1.96568        12.97707        -9.92877
   H        7.15263        11.79535        -6.61324
   H        7.17086        12.09817       -11.59303
   H        9.56626        11.77658       -11.60260
   H       11.68500        11.42947       -10.39744
   H       11.70760        11.27983        -7.93900
   H        9.60780        11.47486        -6.66447
*
