# ORCA input file
# SCF done       -217.167837688085          0.000557690912
! CAM-B3LYP def2-SVP def2/J RIJCOSX Grid4 TightSCF
%maxcore 5000
%tddft
    Mode sTDDFT
    Ethresh 5.0
    maxcore 5000
end

%pal
  nprocs 6
  end
* xyz 0 1
   C        1.58075         0.40851        -3.09914
   C        2.04800        -0.11029        -4.27306
   C        2.57877        -1.41094        -4.41083
   N        3.02224        -2.45601        -4.57583
   C        2.09394         0.61711        -5.48199
   N        2.18177         1.18849        -6.47320
   C        1.58136        -0.23942        -1.79477
   C        1.12179         0.68701        -0.80994
   C        1.02384         0.34638         0.50951
   C        1.38339        -0.95812         0.91319
   C        1.84072        -1.89025        -0.06405
   C        1.93382        -1.51055        -1.42206
   C        2.19413        -3.19036         0.35153
   C        2.10021        -3.55408         1.66741
   C        1.64901        -2.63615         2.62798
   C        1.29856        -1.36563         2.25919
   C        0.78621         1.95867        -1.45760
   O        0.38452         2.98839        -0.95921
   C        1.02572         1.74046        -2.91095
   C        0.64251         2.66754        -3.81056
   C        0.00988         3.90316        -3.38485
   C       -1.35074         4.06919        -3.35086
   N       -2.26247         3.06467        -3.70535
   O       -3.45012         3.29617        -3.59521
   O       -1.79364         2.00762        -4.11077
   C       -1.67930         5.36947        -2.80405
   C       -0.52321         6.01454        -2.55287
   C        0.59568         5.17321        -2.94385
   C        1.93573         5.46598        -2.92930
   C        3.00395         4.51080        -3.04470
   C        4.15249         5.07963        -2.60255
   C        3.89373         6.45504        -2.27125
   N        4.90860         7.32660        -1.84038
   O        4.64384         8.50735        -1.67628
   O        6.01098         6.84228        -1.64667
   C        2.56250         6.75347        -2.53906
   C        1.98128         8.03851        -2.52526
   C        0.96403         8.44295        -3.33900
   C        0.36041         9.72972        -3.29899
   C        0.65251        10.70857        -2.30680
   N        1.50554        10.61356        -1.28957
   S        1.49123        11.98222        -0.45242
   N        0.38736        12.76343        -1.31884
   C       -0.01525        11.97992        -2.31790
   C       -1.00158        12.30069        -3.29293
   C       -1.25289        11.31383        -4.25019
   C       -0.60170        10.09280        -4.24922
   C       -1.66647        13.55659        -3.19811
   C       -2.65687        14.00854        -4.01345
   C       -3.33619        15.23727        -3.83714
   C       -4.36607        15.70829        -4.62885
   C       -4.83425        16.94565        -4.11117
   C       -3.99948        17.22990        -2.92571
   C       -3.11349        16.21302        -2.77628
   C       -4.07838        18.35000        -2.08971
   N       -4.11296        19.25446        -1.38269
   C       -5.86670        17.72398        -4.58622
   C       -6.37907        18.92732        -4.02689
   C       -7.42995        19.38121        -4.79972
   C       -7.60222        18.44694        -5.90702
   C       -6.68219        17.45601        -5.78749
   C       -6.54170        16.37890        -6.67027
   N       -6.44710        15.50555        -7.41049
   C       -8.20384        20.53856        -4.54905
   C       -9.22641        20.97024        -5.34021
   C       -9.97288        22.12819        -5.03120
   C      -10.99570        22.61585        -5.79683
   C      -11.80460        23.79082        -5.52763
   C      -11.73475        24.60448        -4.42560
   C      -12.55836        25.73210        -4.22161
   N      -13.19303        26.66051        -3.99125
   C      -10.85381        24.44478        -3.33551
   N      -10.17558        24.38637        -2.41052
   C      -12.73401        23.95640        -6.64003
   C      -12.52444        22.89946        -7.57138
   C      -11.45033        22.02073        -7.08439
   O      -11.02876        21.02214        -7.63049
   C      -13.25289        22.79294        -8.72122
   C      -14.24574        23.75819        -8.99935
   C      -14.46363        24.81864        -8.07267
   C      -13.69290        24.90260        -6.89040
   C      -15.45772        25.77637        -8.35895
   C      -16.20076        25.69265        -9.50503
   C      -15.98429        24.64887       -10.41719
   C      -15.02768        23.70192       -10.16970
   H        0.67235         1.06414         1.23581
   H        2.27756        -2.23911        -2.13941
   H        2.54087        -3.89369        -0.39108
   H        2.37286        -4.55209         1.97573
   H        1.58016        -2.94087         3.66139
   H        0.95021        -0.65468         2.99391
   H        0.72614         2.49642        -4.87682
   H       -2.68372         5.69868        -2.62140
   H       -0.42065         6.97454        -2.08904
   H        2.88172         3.49559        -3.36350
   H        5.12048         4.62354        -2.51287
   H        2.45289         8.77763        -1.88810
   H        0.59710         7.77361        -4.10788
   H       -1.98570        11.50266        -5.01880
   H       -0.84893         9.37451        -5.01762
   H       -1.33495        14.16974        -2.37180
   H       -2.98921        13.41105        -4.85177
   H       -4.76665        15.21462        -5.49243
   H       -2.37079        16.13649        -2.00477
   H       -6.00766        19.39800        -3.13763
   H       -8.33839        18.53306        -6.68379
   H       -7.94829        21.10331        -3.65997
   H       -9.49257        20.42872        -6.23494
   H       -9.70015        22.65107        -4.12326
   H      -13.07233        21.98117        -9.41025
   H      -13.88262        25.71914        -6.21226
   H      -15.62085        26.57819        -7.65387
   H      -16.95992        26.43096        -9.71524
   H      -16.57926        24.59884       -11.31677
   H      -14.85641        22.89580       -10.86800
*
