# ORCA input file
# SCF done       -175.123208250844          0.000554173161
! CAM-B3LYP def2-SVP def2/J RIJCOSX Grid4 TightSCF
%maxcore 5000
%tddft
    Mode sTDDFT
    Ethresh 5.0
    maxcore 5000
end

%pal
  nprocs 6
  end
* xyz 0 1
   C       -0.85064         1.51495         0.27692
   C       -0.50540         0.38189         0.95762
   C        0.27247        -0.66471         0.41351
   N        0.90361        -1.54204         0.02924
   C       -0.85321         0.10776         2.29921
   N       -1.09650        -0.17878         3.38293
   C       -0.49736         1.83518        -1.09774
   C       -0.95929         3.13943        -1.41158
   C       -0.76257         3.71849        -2.64245
   C       -0.08720         2.97469        -3.61450
   C        0.36662         1.67010        -3.29480
   C        0.17343         1.08672        -2.05034
   S        1.18065         0.93000        -4.63838
   C        0.90722         2.36015        -5.59794
   C        0.23863         3.34319        -4.94749
  Br        1.52993         2.42173        -7.36383
   C       -1.61571         3.72564        -0.23445
   O       -1.94404         4.87473        -0.06736
   C       -1.65226         2.62353         0.78711
   C       -2.33305         2.70600         1.94363
   C       -3.26505         3.77493         2.21638
   C       -4.30478         4.28621         1.45212
   C       -4.74745         3.83586         0.12855
   O       -4.12639         3.08759        -0.58803
   O       -5.94799         4.31332        -0.19301
   C       -4.89964         5.24205         2.32597
   N       -4.25850         5.27302         3.46883
   O       -3.27603         4.36683         3.41064
   C       -6.03239         6.11182         2.10230
   C       -7.05002         6.44384         2.97207
   C       -7.29051         5.80165         4.30003
   O       -7.16354         4.61486         4.42140
   O       -7.64246         6.58427         5.30481
   C       -7.81457         7.37587         2.21064
   N       -7.27614         7.54782         1.02486
   O       -6.18522         6.78348         0.95816
   C       -9.00580         8.07700         2.62866
   C       -9.44264         9.36734         2.40520
   C       -8.83214        10.50144         1.69906
   O       -9.40252        11.54667         1.51511
   O       -7.58013        10.26768         1.31891
   C      -10.64585         9.43861         3.17250
   N      -10.88127         8.28635         3.75066
   O       -9.88573         7.44740         3.41244
   C      -11.48748        10.60020         3.33646
   C      -11.91932        11.11614         4.49809
   C      -11.64971        10.77713         5.89166
   C      -10.54115        10.16416         6.40627
   C      -10.31222        10.00675         7.79514
   N      -10.06912         9.86559         8.90652
   C       -9.43663         9.65714         5.69984
   N       -8.47014         9.22276         5.25246
   C      -12.70459        11.39104         6.68684
   C      -13.47235        12.25530         5.86284
   C      -12.97445        12.18399         4.47976
   O      -13.34858        12.80188         3.51588
   C      -14.52316        12.99884         6.34507
   C      -14.83913        12.88045         7.70202
   C      -14.08074        11.99929         8.51387
   C      -13.01776        11.25041         8.02808
   S      -14.65000        11.99273        10.15394
   C      -15.87593        13.16061         9.73811
   C      -15.86400        13.53555         8.43541
  Br      -17.05565        13.77256        11.05827
   H       -1.12235         4.71419        -2.84821
   H        0.53789         0.09180        -1.85603
   H       -0.01311         4.29020        -5.38872
   H       -2.24369         1.96001         2.72185
   H       -6.21455         4.00014        -1.07196
   H       -7.72855         7.54162         5.10960
   H       -7.21984        11.03515         0.84601
   H      -11.79502        11.10250         2.42588
   H      -15.08357        13.65127         5.69416
   H      -12.48130        10.58421         8.68260
   H      -16.54986        14.24475         8.00946
*
