# ORCA input file
# SCF done       -196.116629302720          0.000977207857
! CAM-B3LYP def2-SVP def2/J RIJCOSX Grid4 TightSCF
%maxcore 5000
%tddft
    Mode sTDDFT
    Ethresh 5.0
    maxcore 5000
end

%pal
  nprocs 6
  end
* xyz 0 1
   C      -17.02116        -6.96736        -8.25317
   C      -16.16841        -7.74382        -7.50025
   C      -15.73387        -9.03095        -7.87304
   N      -15.34113       -10.08476        -8.10944
   C      -15.60440        -7.39130        -6.25878
   N      -15.09750        -7.19795        -5.24503
   C      -17.60271        -7.36133        -9.53520
   C      -18.44225        -6.31646        -9.99259
   C      -19.13001        -6.38373       -11.17849
   C      -18.98162        -7.53885       -11.95490
   C      -18.14174        -8.57704       -11.49022
   C      -17.44684        -8.50894       -10.28795
   S      -18.09769        -9.91065       -12.60363
   C      -19.19317        -9.06531       -13.66442
   C      -19.57409        -7.84811       -13.20995
  Br      -19.72940        -9.86960       -15.27215
   C      -18.42163        -5.21134        -9.01089
   O      -19.03564        -4.16524        -9.09064
   C      -17.50453        -5.64899        -7.94018
   C      -17.15404        -4.88339        -6.84425
   C      -17.62006        -3.60312        -6.57420
   C      -17.17716        -2.86748        -5.48626
   C      -17.54607        -1.55451        -5.13248
   C      -16.89964        -1.07270        -4.02496
   C      -15.99833        -1.99004        -3.45905
   S      -15.99678        -3.48661        -4.35342
   C      -15.14986        -1.82375        -2.36595
   C      -14.93721        -0.68364        -1.57362
   C      -13.97418        -0.85749        -0.61460
   C      -13.39601        -2.14117        -0.60830
   S      -14.12239        -3.13370        -1.84826
   C      -12.37141        -2.58414         0.21307
   C      -11.80911        -3.84955         0.21127
   S      -12.34346        -5.20643        -0.76804
   C      -11.10732        -6.31872        -0.16992
   C      -10.30527        -5.63236         0.77765
   C      -10.71976        -4.29706         0.97359
   O       -9.97974        -3.68376         1.90522
   C       -9.08977        -4.61867         2.32920
   N       -8.17494        -4.25771         3.34424
   O       -7.41213        -5.12855         3.71778
   O       -8.21798        -3.12239         3.76811
   C       -9.23833        -5.82376         1.68423
   C      -11.14992        -7.60807        -0.65615
   C      -10.23683        -8.65197        -0.54337
   C      -10.47833        -9.96262        -0.99204
   C       -9.41354       -10.81293        -0.84491
   C       -8.27523       -10.19542        -0.30491
   S       -8.60490        -8.52233         0.05873
   C       -7.01321       -10.75445        -0.10694
   C       -6.64109       -12.10063        -0.27033
   C       -5.31092       -12.33053        -0.05019
   C       -4.57688       -11.17255         0.27679
   S       -5.63528        -9.78387         0.33811
   C       -3.20563       -11.09429         0.44354
   C       -2.51555        -9.91292         0.68882
   C       -1.14913        -9.73083         0.69372
   C       -0.07406       -10.55638         0.21772
   C       -0.13312       -11.50155        -0.78196
   C        0.97623       -12.24930        -1.22190
   N        1.83773       -12.90608        -1.60380
   C       -1.27025       -11.75712        -1.57299
   N       -2.14551       -11.98289        -2.28224
   C        1.16175       -10.05184         0.81644
   C        0.87975        -8.82684         1.47181
   C       -0.56764        -8.54465         1.36594
   O       -1.16492        -7.57132         1.76863
   C        1.85085        -8.08195         2.09355
   C        3.16099        -8.57445         2.07869
   C        3.42866        -9.80566         1.43607
   C        2.44677       -10.55600         0.79854
   S        5.10905       -10.23257         1.54599
   C        5.42641        -8.76768         2.43718
   C        4.33156        -7.99879         2.64487
  Br        7.17296        -8.39400         3.00982
   H      -19.76164        -5.57055       -11.50011
   H      -16.81816        -9.32735        -9.98007
   H      -20.24411        -7.19359       -13.73680
   H      -16.44443        -5.30013        -6.13963
   H      -18.33892        -3.14971        -7.24109
   H      -18.26808        -1.00035        -5.70513
   H      -17.05186        -0.09062        -3.61483
   H      -15.47684         0.23286        -1.72874
   H      -13.66487        -0.09623         0.07925
   H      -11.94925        -1.87548         0.91357
   H       -8.64706        -6.69483         1.87070
   H      -12.02582        -7.84137        -1.25066
   H      -11.42761       -10.24894        -1.40829
   H       -9.42306       -11.84661        -1.13789
   H       -7.34972       -12.86350        -0.53676
   H       -4.83546       -13.29063        -0.13836
   H       -2.66149       -12.02474         0.36617
   H       -3.09518        -9.03762         0.96733
   H        1.60977        -7.14774         2.57584
   H        2.69893       -11.49024         0.32497
   H        4.34613        -7.06407         3.17500
*
