# ORCA input file
# SCF done       -176.003762389495          0.000883817983
! CAM-B3LYP def2-SVP def2/J RIJCOSX Grid4 TightSCF
%maxcore 5000
%tddft
    Mode sTDDFT
    Ethresh 5.0
    maxcore 5000
end

%pal
  nprocs 6
  end
* xyz 0 1
   C       -4.27414        -1.62734         1.75227
   C       -3.20826        -1.28444         2.54936
   C       -2.35770        -2.21808         3.17291
   N       -1.62749        -2.93260         3.69818
   C       -2.83912         0.03478         2.88028
   N       -2.49752         1.07803         3.21945
   C       -4.73754        -2.98972         1.50062
   C       -5.91373        -2.92309         0.71650
   C       -6.60464        -4.04034         0.31883
   C       -6.11156        -5.28800         0.71833
   C       -4.93373        -5.34527         1.49802
   C       -4.23371        -4.21240         1.89859
   S       -4.49556        -6.98490         1.87409
   C       -5.88400        -7.56166         0.99167
   C       -6.63843        -6.57984         0.44377
  Br       -6.20979        -9.40628         0.87937
   C       -6.22516        -1.50788         0.42353
   O       -7.12917        -1.11405        -0.29521
   C       -5.18624        -0.72091         1.09809
   C       -4.98791         0.64027         0.95194
   C       -5.90445         1.60668         0.54360
   S       -5.27619         3.08208        -0.15817
   C       -6.84673         3.70972        -0.48997
   C       -7.84234         2.84498         0.00148
   C       -7.31437         1.66722         0.60477
   C       -8.17841         0.76870         1.23761
   C       -9.54100         0.95361         1.16109
   S      -10.67010        -0.25656         1.74770
   C       -9.75097        -1.82212         1.55563
   C       -9.09401        -2.29689         2.83870
   C      -10.06626         2.13113         0.56816
   S      -11.81313         2.42468         0.48485
   C      -12.26843         2.52676         2.26610
   C      -13.52885         1.73542         2.54698
   C       -9.23064         3.05884         0.00435
   C       -7.05686         4.93062        -1.17530
   C       -6.08286         5.77962        -1.56971
   C       -6.34030         7.01480        -2.27602
   C       -5.34719         7.87487        -2.58457
   C       -7.67504         7.29499        -2.64231
   C       -8.82768         7.50286        -2.95644
   C      -10.14681         7.73735        -3.32271
   C      -10.56765         8.90723        -3.87500
   C      -11.90084         9.14891        -4.25347
   C      -12.34329        10.32821        -4.79539
   C      -13.66609        10.64096        -5.20079
   C      -13.81432        11.89830        -5.69952
   C      -12.61653        12.65044        -5.71470
   S      -11.29079        11.70677        -5.07878
   C      -12.42588        13.94949        -6.14485
   C      -13.37447        14.85052        -6.67779
   C      -12.85346        16.06553        -6.99894
   C      -11.46240        16.19423        -6.73797
   S      -10.84613        14.69742        -6.06719
   C      -10.72361        17.32442        -6.97740
   C       -9.34927        17.53050        -6.74774
   S       -8.64118        19.09315        -7.14060
   C       -7.05715        18.65652        -6.63897
   C       -7.04591        17.36063        -6.18259
   C       -8.33210        16.73554        -6.24590
   O       -8.26140        15.46751        -5.78708
   C       -6.96427        15.27611        -5.43551
   N       -6.60634        14.01137        -4.91488
   O       -5.43644        13.86297        -4.60849
   O       -7.47067        13.16729        -4.81138
   C       -6.17352        16.37413        -5.64649
   H       -7.49711        -3.95899        -0.28222
   H       -3.33774        -4.30917         2.48845
   H       -7.52783        -6.75738        -0.13294
   H       -3.98209         1.00866         1.11914
   H       -7.76812        -0.05786         1.78837
   H       -9.03489        -1.67146         0.74804
   H      -10.50955        -2.53670         1.23398
   H       -8.36454        -1.57877         3.20817
   H       -8.58216        -3.24119         2.65862
   H       -9.84145        -2.44861         3.61461
   H      -12.40895         3.58597         2.48358
   H      -11.42410         2.14699         2.83706
   H      -14.35415         2.11003         1.94624
   H      -13.79249         1.82430         3.59882
   H      -13.37327         0.68592         2.31082
   H       -9.65252         3.95064        -0.43028
   H       -8.08578         5.18532        -1.39152
   H       -5.04725         5.55448        -1.35040
   H       -4.32648         7.66624        -2.31406
   H       -5.54322         8.79414        -3.10752
   H      -10.85051         6.93134        -3.15013
   H       -9.84941         9.70153        -4.03492
   H      -12.62791         8.35947        -4.10954
   H      -14.46309         9.92388        -5.10903
   H      -14.74454        12.30534        -6.05367
   H      -14.40717        14.58076        -6.80862
   H      -13.41868        16.88047        -7.41569
   H      -11.25340        18.17045        -7.39468
   H       -6.25525        19.36066        -6.70973
   H       -5.12561        16.44661        -5.44211
*
