# ORCA input file
# SCF done       -206.800813403981          0.000610421931
! CAM-B3LYP def2-SVP def2/J RIJCOSX Grid4 TightSCF
%maxcore 5000
%tddft
    Mode sTDDFT
    Ethresh 5.0
    maxcore 5000
end

%pal
  nprocs 6
  end
* xyz 0 1
   C       12.49724       -13.18279        -8.67836
   C       11.53387       -13.25071        -7.74887
   C       10.82094       -14.41396        -7.30485
   C        9.90570       -14.16826        -6.34059
   C        9.82330       -12.80216        -5.94873
   S       10.95054       -11.83405        -6.85735
   C        9.00051       -12.25649        -4.98152
   C        8.06700       -12.92710        -4.16200
   C        7.44254       -12.09842        -3.28060
   C        7.84692       -10.74020        -3.35624
   S        9.03017       -10.54024        -4.61882
   C        7.36761        -9.78636        -2.47765
   C        7.65957        -8.42904        -2.32404
   C        7.08828        -7.73436        -1.20562
   C        7.40261        -6.36061        -0.93398
   N        6.87813        -5.75418         0.13859
   C        6.07823        -6.41635         0.93893
   C        5.75175        -7.77665         0.65554
   N        6.26233        -8.39203        -0.39384
   C        4.86652        -8.49222         1.49780
   N        4.14727        -9.05549         2.18925
   C        5.53334        -5.75745         2.07003
   N        5.06540        -5.24867         2.98268
   C        8.26987        -5.59323        -1.74031
   C        8.77730        -6.24551        -2.88694
   C        8.48612        -7.63467        -3.16173
   N        9.07719        -8.03751        -4.28075
   S        9.90648        -6.81303        -4.92863
   N        9.55896        -5.71419        -3.81978
   C        8.61962        -4.28310        -1.33104
   S        7.99671        -3.61980         0.15485
   C        8.91415        -2.14186         0.01594
   C        9.66274        -2.16128        -1.15933
   C        9.49963        -3.36689        -1.89496
   O       10.28477        -3.36846        -2.98300
   C       10.95426        -2.19167        -2.95288
   N       11.87609        -1.93032        -3.99699
   O       12.48189        -0.87813        -3.93256
   O       12.00317        -2.76546        -4.86521
   C       10.63444        -1.41274        -1.86981
   C        8.87398        -1.11789         1.00972
   C        8.82558         0.26092         0.68836
   C        8.53863         0.76698        -0.66618
   O        8.25959         0.14992        -1.65082
   S        8.58518         2.56548        -0.64617
   C        8.90942         2.63641         1.11162
   O        9.07197         3.66076         1.70414
   C        8.93539         1.26017         1.65302
   C        9.08146         0.98529         3.02458
   C        8.99977        -0.37862         3.34833
   C        8.89957        -1.38372         2.39381
   C        8.93037        -2.67603         3.12508
   O        8.99563        -3.79661         2.72341
   O        8.92111        -2.38503         4.46476
   C        8.93288        -1.03065         4.68421
   O        8.85679        -0.55939         5.77417
   C        9.31861         2.00821         4.01495
   C       10.22252         1.84417         5.00274
   C       10.46442         2.83138         5.99760
   C       11.43168         2.71907         6.94760
   C       11.69906         3.63824         8.04555
   C       11.06152         4.82315         8.29747
   C       11.37307         5.67494         9.37991
   N       11.58024         6.41012        10.23652
   C       10.01428         5.37777         7.52955
   N        9.16130         5.90168         6.96819
   C       12.77965         3.07291         8.84423
   C       13.19736         1.85357         8.25612
   C       12.40258         1.59095         7.04393
   O       12.54457         0.66006         6.28168
   C       14.20605         1.08173         8.78106
   C       14.83435         1.53294         9.94535
   C       14.41064         2.75237        10.52859
   C       13.39164         3.53217         9.99731
   S       15.32059         3.12490        11.96058
   C       16.24589         1.66059        11.75880
   C       15.89211         0.92722        10.67628
  Br       17.58892         1.23757        12.99606
   H       12.82555       -14.06711        -9.19575
   H       12.97025       -12.25262        -8.93538
   H       11.02818       -15.38086        -7.72720
   H        9.28220       -14.91925        -5.88979
   H        7.88357       -13.98405        -4.23192
   H        6.70628       -12.41907        -2.56481
   H        6.66375       -10.16004        -1.74234
   H       11.04886        -0.45188        -1.64616
   H        8.80124         2.95048         3.89366
   H       10.81513         0.94322         5.05230
   H        9.81379         3.69591         5.99106
   H       14.49899         0.15821         8.30682
   H       13.10747         4.45165        10.48069
   H       16.35696        -0.00244        10.40314
*
