# ORCA input file
# SCF done       -209.709101668382          0.000651512848
! CAM-B3LYP def2-SVP def2/J RIJCOSX Grid4 TightSCF
%maxcore 5000
%tddft
    Mode sTDDFT
    Ethresh 5.0
    maxcore 5000
end

%pal
  nprocs 6
  end
* xyz 0 1
   C        0.42419         0.25437        -6.15272
   C        0.88976         1.07128        -7.17177
   F        0.18370         2.15903        -7.50213
   C        2.07056         0.78824        -7.85915
   F        2.48143         1.60671        -8.83562
   C        2.81929        -0.33220        -7.53963
   C        2.35398        -1.14456        -6.52455
   C        1.16948        -0.86894        -5.82606
   C        0.96673        -1.91155        -4.81994
   C       -0.06216        -1.92254        -3.91380
   C       -1.07973        -0.94480        -3.86250
   N       -1.93999        -0.19167        -3.76236
   C       -0.28047        -2.86779        -2.88770
   N       -0.54917        -3.56305        -2.01336
   C        2.05525        -2.86849        -4.94155
   C        2.96595        -2.39098        -6.00788
   O        3.98976        -2.88364        -6.42551
   C        2.12703        -4.02265        -4.20176
   C        3.09283        -5.04417        -4.10562
   C        2.88636        -6.15119        -3.29292
   C        4.02724        -7.00007        -3.35686
   C        4.94624        -6.32558        -4.26819
   C        4.41420        -5.17712        -4.71846
   F        6.15123        -6.81835        -4.58571
   C        4.24090        -8.19469        -2.70124
   C        5.38186        -9.02801        -2.73175
   C        5.17461       -10.11942        -1.90994
   C        3.83355       -10.00068        -1.32001
   C        3.29621        -8.86861        -1.79080
   F        2.08280        -8.39313        -1.50271
   C        6.10008       -11.15428        -1.66442
   C        5.87787       -12.21373        -0.84550
   N        6.76753       -13.21134        -0.64557
   C        6.61270       -14.21306         0.39432
   C        6.78858       -13.59764         1.78300
   C        6.83041       -14.66484         2.87769
   N        7.13297       -13.99975         4.13024
   S        8.84190       -14.07678         4.31216
   N        8.94287       -15.66108         3.65148
   C        7.95711       -15.73217         2.58962
   C        8.66567       -15.44351         1.26559
   C        7.66943       -15.31038         0.11386
   N        8.33653       -14.92780        -1.11543
   S        8.34227       -13.23972        -1.29153
   C        9.13168       -15.74224        -1.84450
   C        9.91496       -15.36527        -2.91206
   C       10.58216       -16.50706        -3.41008
   C       10.13320       -17.61956        -2.55899
   C        9.26980       -17.17910        -1.62826
   F       10.52221       -18.88335        -2.72050
   C       11.48181       -16.59667        -4.45190
   C       12.21807       -17.73110        -4.89130
   C       13.03193       -17.36156        -5.94677
   C       12.80614       -15.94299        -6.22179
   C       11.90022       -15.50752        -5.33138
   F       11.41219       -14.26377        -5.23753
   C       13.95956       -18.20797        -6.58832
   C       14.73056       -17.86668        -7.66160
   C       15.65304       -18.72136        -8.30098
   C       16.30287       -19.83361        -7.83695
   C       16.87531       -20.78305        -8.82668
   O       17.00366       -20.60592       -10.01558
   C       17.20402       -22.00201        -8.05259
   C       16.96881       -21.76305        -6.68766
   C       17.17530       -22.77215        -5.76111
   C       17.62096       -24.00047        -6.22657
   C       17.86580       -24.22552        -7.58163
   C       17.65699       -23.22203        -8.51432
   F       18.30235       -25.42488        -7.98440
   F       17.81571       -24.99269        -5.35078
   C       16.53978       -20.37214        -6.51729
   C       16.60822       -19.67850        -5.33632
   C       16.43577       -18.28403        -5.22518
   N       16.33905       -17.15076        -5.07330
   C       16.93793       -20.26287        -4.09618
   N       17.17733       -20.68939        -3.05781
   H       -0.49469         0.51964        -5.65699
   H        3.73240        -0.55870        -8.06670
   H        1.28061        -4.20528        -3.54948
   H        2.00804        -6.33628        -2.70454
   H        4.85242        -4.47881        -5.40122
   H        6.26983        -8.83583        -3.30036
   H        3.37681       -10.69406        -0.64223
   H        7.05703       -11.08254        -2.16594
   H        4.94848       -12.32660        -0.30737
   H        5.60329       -14.63285         0.30626
   H        5.96434       -12.91569         1.99388
   H        7.71004       -13.01565         1.82684
   H        5.85412       -15.15414         2.94912
   H        6.65850       -14.41355         4.92636
   H        8.81140       -16.36833         4.36696
   H        7.52386       -16.73698         2.55967
   H        9.36573       -16.25271         1.05649
   H        9.25059       -14.52889         1.37022
   H        7.17303       -16.27153        -0.05681
   H       10.02299       -14.36714        -3.28647
   H        8.77156       -17.76478        -0.88180
   H       12.16377       -18.71012        -4.45641
   H       13.29292       -15.36415        -6.98043
   H       14.01909       -19.21783        -6.20014
   H       14.57549       -16.90321        -8.12562
   H       15.84589       -18.51352        -9.35016
   H       16.99769       -22.64767        -4.70540
   H       17.84410       -23.39398        -9.56225
*
