# ORCA input file
# SCF done       -222.427276833800          0.000763714311
! CAM-B3LYP def2-SVP def2/J RIJCOSX Grid4 TightSCF
%maxcore 5000
%tddft
    Mode sTDDFT
    Ethresh 5.0
    maxcore 5000
end

%pal
  nprocs 6
  end
* xyz 0 1
   C        1.49208        -0.40587         4.75990
   C        0.69361         0.57831         5.32331
   F        1.20291         1.35414         6.28550
   C       -0.62598         0.77460         4.91244
   F       -1.35707         1.74076         5.47963
   C       -1.18737        -0.02142         3.92666
   C       -0.39700        -1.00856         3.37128
   C        0.93670        -1.20492         3.77369
   C        1.51304        -2.28517         2.97403
   C        2.84908        -2.50124         2.76516
   C        3.87057        -1.83159         3.47029
   N        4.73059        -1.32677         4.03792
   C        3.35172        -3.33844         1.74430
   N        3.81611        -3.93296         0.87969
   C        0.42908        -2.89838         2.23825
   C       -0.75339        -2.00200         2.33005
   O       -1.79193        -2.09707         1.72171
   C        0.33939        -4.10724         1.61463
   C        1.18795        -5.22963         1.77187
   C        1.32157        -6.26990         0.87914
   C        2.27284        -7.20455         1.39235
   C        2.65420        -6.67947         2.70211
   C        2.03262        -5.51247         2.93645
   F        3.49117        -7.30589         3.53362
   C        2.75931        -8.34160         0.79208
   C        3.74056        -9.24645         1.28087
   C        3.95371       -10.23819         0.34573
   C        3.07153        -9.98084        -0.80439
   C        2.37730        -8.86976        -0.52831
   F        1.45735        -8.29489        -1.30755
   C        4.86805       -11.30348         0.49910
   C        5.11894       -12.24528        -0.45044
   C        6.05480       -13.31090        -0.38835
   S        6.57732       -13.91189        -1.93887
   C        6.70039       -13.99648         0.64550
   C        6.33046       -13.88544         2.07703
   O        5.46792       -13.14202         2.51081
   C        7.07328       -14.79461         2.92852
   C        7.00747       -14.95860         4.29604
   N        7.87852       -15.93017         4.65537
   C        8.05079       -16.43469         5.99481
   C        7.04531       -17.54438         6.29464
   C        8.49801       -16.41414         3.55393
   C        8.03048       -15.72965         2.45204
   C        8.38624       -15.87928         1.05480
   O        9.17190       -16.72301         0.66077
   C        7.66763       -14.92870         0.17119
   C        7.75812       -14.96483        -1.22140
   C        8.60603       -15.66586        -2.12187
   C        9.89400       -16.03179        -1.89123
   C       10.70569       -16.73857        -2.81079
   C       10.36721       -17.34385        -4.00285
   C       11.51829       -17.98642        -4.54075
   C       12.60110       -17.70504        -3.58555
   C       12.13460       -16.97708        -2.56388
   F       13.85761       -18.12963        -3.75492
   C       11.62116       -18.74320        -5.68450
   C       12.77104       -19.41655        -6.19313
   C       12.42703       -20.09553        -7.34395
   C       11.00684       -19.85218        -7.61181
   C       10.54969       -19.05692        -6.63255
   F        9.30145       -18.59226        -6.50694
   C       13.30454       -20.90960        -8.09291
   C       12.98087       -21.57495        -9.23821
   C       13.87272       -22.35791       -10.00463
   C       15.05363       -22.95890        -9.66666
   C       15.98676       -23.34027       -10.76181
   O       15.74360       -23.37103       -11.94487
   C       17.27690       -23.62116       -10.09316
   C       17.10406       -23.54979        -8.69996
   C       18.18586       -23.74082        -7.85568
   C       19.41966       -24.00682        -8.43102
   C       19.58017       -24.09100        -9.81494
   C       18.50337       -23.89663       -10.66515
   F       20.78797       -24.35687       -10.32519
   F       20.48034       -24.18215        -7.63625
   C       15.69282       -23.28262        -8.41052
   C       15.08067       -23.54576        -7.21288
   C       13.68516       -23.50726        -7.01732
   N       12.55585       -23.51892        -6.81475
   C       15.76706       -23.96127        -6.05271
   N       16.27939       -24.28815        -5.07954
   H        2.50519        -0.52298         5.10927
   H       -2.20654         0.13027         3.60867
   H       -0.52784        -4.24101         0.97592
   H        0.84419        -6.33900        -0.07863
   H        2.08461        -4.92254         3.83063
   H        4.23808        -9.16522         2.22700
   H        2.99986       -10.58013        -1.69011
   H        5.38581       -11.34249         1.44473
   H        4.62987       -12.15105        -1.41239
   H        6.40566       -14.43623         5.01287
   H        7.91690       -15.60855         6.69778
   H        9.06998       -16.81646         6.09283
   H        6.02868       -17.17034         6.20123
   H        7.19006       -17.91238         7.30618
   H        7.17484       -18.37106         5.60033
   H        9.22915       -17.19626         3.60577
   H        8.18762       -15.82952        -3.10714
   H       10.35962       -15.77406        -0.95230
   H        9.39569       -17.36778        -4.45477
   H       12.67427       -16.62112        -1.70840
   H       13.74201       -19.40574        -5.73779
   H       10.44526       -20.24846        -8.43378
   H       14.32222       -20.95771        -7.72512
   H       11.99449       -21.43698        -9.65741
   H       13.62873       -22.45240       -11.05964
   H       18.11263       -23.68201        -6.78197
   H       18.62562       -23.95837       -11.73471
*
