# ORCA input file
# SCF done       -223.947666102158          0.000441272918
! CAM-B3LYP def2-SVP def2/J RIJCOSX Grid4 TightSCF
%maxcore 5000
%tddft
    Mode sTDDFT
    Ethresh 5.0
    maxcore 5000
end

%pal
  nprocs 6
  end
* xyz 0 1
   C       -1.77516        -0.97218         2.80527
   C       -1.07946         0.21005         2.59643
   F       -1.53172         1.33505         3.16115
   C        0.07385         0.25332         1.81292
   F        0.71431         1.41541         1.64016
   C        0.56189        -0.89541         1.21027
   C       -0.12834        -2.07189         1.42172
   C       -1.29013        -2.12585         2.21024
   C       -1.77464        -3.50676         2.23872
   C       -2.84546        -3.95636         2.96483
   C       -3.67512        -3.12510         3.74828
   N       -4.38899        -2.50373         4.39693
   C       -3.26409        -5.30144         3.05490
   N       -3.65540        -6.37208         3.19259
   C       -0.87487        -4.30073         1.42589
   C        0.16070        -3.41559         0.87874
   O        1.02294        -3.69631         0.06559
   C       -1.04660        -5.62554         1.09715
   C       -0.13504        -6.49867         0.49104
   S       -0.77859        -7.97767        -0.20622
   C        0.78244        -8.56345        -0.69215
   C        1.78302        -7.68079        -0.25240
   C        1.25741        -6.52221         0.38548
   S        2.49227        -5.49562         0.99797
   C        3.70286        -6.61850         0.43936
   C        5.12793        -6.35376         0.67367
   O        6.01036        -7.12006         0.37694
   O        5.30157        -5.17262         1.27180
   C        6.64750        -4.77286         1.53797
   C        7.29768        -4.16081         0.30606
   C        3.19452        -7.70601        -0.21035
   C        0.86813        -9.76197        -1.42426
   C        1.98563       -10.17165        -2.09182
   C        2.11901       -11.37482        -2.82141
   C        3.32473       -11.61889        -3.53375
   C        3.53649       -12.82300        -4.28640
   N        4.68417       -13.00034        -4.94307
   C        5.61677       -12.07734        -4.90790
   C        5.40265       -10.87743        -4.15995
   N        4.28503       -10.68410        -3.50195
   C        6.40299        -9.87120        -4.13407
   N        7.22592        -9.07554        -4.14571
   C        6.82333       -12.28794        -5.61922
   N        7.80662       -12.43226        -6.18823
   C        2.56844       -13.86092        -4.37200
   C        1.36483       -13.61145        -3.67150
   C        1.14446       -12.39853        -2.91438
   N       -0.06002       -12.39659        -2.34378
   S       -0.83610       -13.75259        -2.71021
   N        0.31043       -14.41931        -3.61335
   C        2.84871       -15.03237        -5.10921
   S        4.37938       -15.19440        -5.93329
   C        3.99828       -16.78847        -6.53947
   C        2.72008       -17.17880        -6.11086
   C        2.08809       -16.18957        -5.30781
   S        0.53959       -16.70529        -4.74427
   C        0.74980       -18.23111        -5.55975
   C       -0.29024       -19.26241        -5.43027
   O       -1.30282       -19.12185        -4.79065
   O        0.05489       -20.37028        -6.09308
   C       -0.84345       -21.48179        -6.02105
   C       -1.98395       -21.34484        -7.01858
   C        1.92570       -18.33773        -6.23995
   C        4.97988       -17.46416        -7.27963
   C        4.84516       -18.69766        -7.85559
   C        5.89853       -19.35353        -8.51260
   C        5.88538       -20.63725        -8.99221
   C        6.89214       -21.06575        -9.99593
   O        7.90846       -20.48950       -10.30220
   C        6.34858       -22.31788       -10.57364
   C        5.16189       -22.66705        -9.90393
   C        4.45564       -23.79616       -10.28530
   C        4.95790       -24.55350       -11.33345
   C        6.14147       -24.20647       -11.98656
   C        6.85252       -23.07755       -11.61047
   F        6.59239       -24.97088       -12.98682
   F        4.28737       -25.64188       -11.72465
   C        4.93113       -21.70683        -8.82280
   C        4.10376       -21.91574        -7.74765
   C        4.15998       -21.17659        -6.54675
   N        4.19023       -20.65163        -5.52628
   C        3.14799       -22.94908        -7.66726
   N        2.31332       -23.72967        -7.55851
   H       -2.66318        -0.95055         3.41520
   H        1.45077        -0.86575         0.60071
   H       -2.01139        -6.06988         1.30797
   H        7.21532        -5.64759         1.87159
   H        6.56893        -4.04553         2.34828
   H        7.37891        -4.90638        -0.48121
   H        8.29300        -3.80750         0.55894
   H        6.70421        -3.32491        -0.05646
   H        3.82902        -8.48077        -0.59783
   H       -0.02705       -10.36530        -1.48293
   H        2.85681        -9.53514        -2.12080
   H       -1.23733       -21.55065        -5.00212
   H       -0.22403       -22.35302        -6.24413
   H       -2.59175       -20.47695        -6.77418
   H       -2.60678       -22.23340        -6.97765
   H       -1.59221       -21.23268        -8.02676
   H        2.18442       -19.22796        -6.77683
   H        5.93586       -16.96042        -7.35662
   H        3.88609       -19.18619        -7.82550
   H        6.79694       -18.78503        -8.72701
   H        3.53734       -24.10371        -9.81176
   H        7.76797       -22.80851       -12.11291
*
