# ORCA input file
# SCF done       -157.130500307883          0.000943982880
! CAM-B3LYP def2-SVP def2/J RIJCOSX Grid4 TightSCF
%maxcore 5000
%tddft
    Mode sTDDFT
    Ethresh 5.0
    maxcore 5000
end

%pal
  nprocs 6
  end
* xyz 0 1
   C       -0.28703        -0.38993         2.02693
   C       -0.19695         0.21831         3.26982
   F       -0.64052         1.47223         3.40955
   C        0.34396        -0.44270         4.37346
   F        0.41080         0.18399         5.55362
   C        0.81229        -1.74109         4.25669
   C        0.72208        -2.34549         3.01849
   C        0.17984        -1.68992         1.90240
   C        0.22806        -2.59663         0.75565
   C       -0.26265        -2.30184        -0.49042
   C       -0.86452        -1.07165        -0.83490
   N       -1.36311        -0.09998        -1.18656
   C       -0.26402        -3.15740        -1.61212
   N       -0.31026        -3.79071        -2.56990
   C        0.84589        -3.83569         1.19827
   C        1.15119        -3.71108         2.63933
   O        1.65531        -4.52094         3.38600
   C        1.10730        -4.89458         0.36846
   C        1.64065        -6.17260         0.61122
   N        1.79144        -7.03185        -0.45316
   C        2.27179        -8.22234        -0.02647
   C        2.44944        -8.14014         1.36014
   C        2.06237        -6.87296         1.75426
   C        2.50917        -9.29860        -0.87757
   C        2.70526       -10.24528        -1.60672
   C        2.90670       -11.35611        -2.44321
   C        3.07638       -11.18789        -3.81759
   C        3.24308       -12.29183        -4.63412
   N        3.28173       -12.04566        -6.05816
   O        3.86787       -11.05343        -6.42970
   O        2.68965       -12.81983        -6.77599
   C        3.27946       -13.59517        -4.11580
   C        3.09752       -13.74210        -2.73438
   C        2.91135       -12.65328        -1.91390
   C        3.55046       -14.76346        -4.92803
   N        2.99373       -15.95952        -4.64606
   C        3.46108       -16.90435        -5.51513
   C        4.38211       -16.27827        -6.36612
   C        4.43044       -14.94321        -6.00190
   C        3.01713       -18.20740        -5.46587
   C        2.51744       -19.30883        -5.28694
   C        2.10493       -20.61334        -5.25735
   C        1.11745       -21.24552        -4.54818
   C        0.91512       -22.68711        -4.84077
   O        1.57995       -23.37079        -5.58550
   C       -0.26185       -23.09514        -4.04736
   C       -0.72623       -21.99131        -3.31260
   C       -1.84296       -22.13083        -2.50247
   C       -2.46068       -23.37148        -2.44685
   C       -1.98666       -24.46179        -3.17670
   C       -0.87358       -24.33129        -3.99158
   F       -2.61288       -25.64014        -3.09040
   F       -3.53987       -23.51981        -1.67137
   C        0.13775       -20.83227        -3.57432
   C       -0.00166       -19.62236        -2.94093
   C        0.80380       -18.48147        -3.06263
   N        1.36342       -17.47782        -3.02296
   C       -1.01266       -19.32726        -1.99711
   N       -1.79649       -18.99880        -1.22606
   H       -0.71213         0.16693         1.20847
   H        1.23170        -2.25777         5.10517
   H        0.85603        -4.74179        -0.67452
   H        1.55907        -6.81099        -1.40924
   H        2.82169        -8.92736         1.98479
   H        2.07476        -6.47777         2.74874
   H        3.05883       -10.20211        -4.25813
   H        3.12675       -14.73147        -2.30402
   H        2.77083       -12.78940        -0.85251
   H        2.30048       -16.17778        -3.93419
   H        4.93179       -16.75490        -7.15273
   H        5.05049       -14.18955        -6.44563
   H        2.63996       -21.27613        -5.93718
   H       -2.25656       -21.32604        -1.91815
   H       -0.50263       -25.16856        -4.56091
*
