# ORCA input file
# SCF done       -184.953970619705          0.000600519360
! CAM-B3LYP def2-SVP def2/J RIJCOSX Grid4 TightSCF
%maxcore 5000
%tddft
    Mode sTDDFT
    Ethresh 5.0
    maxcore 5000
end

%pal
  nprocs 6
  end
* xyz 0 1
   C       -3.04414        -8.09098        -1.13987
   C       -4.42374        -8.16738        -1.00952
   F       -5.12120        -8.87699        -1.90561
   C       -5.09664        -7.52825         0.03073
   F       -6.43068        -7.62249         0.11355
   C       -4.40082        -6.79972         0.98338
   C       -3.02769        -6.73449         0.86249
   C       -2.34413        -7.36605        -0.19118
   C       -0.91533        -7.06718        -0.06460
   C       -0.00784        -7.11693        -1.09557
   C       -0.26924        -7.70220        -2.34819
   N       -0.42222        -8.19530        -3.37399
   C        1.25025        -6.48619        -1.03399
   N        2.25847        -5.93636        -1.03682
   C       -0.72192        -6.44434         1.21589
   C       -2.04677        -6.06513         1.75165
   O       -2.27786        -5.39299         2.73222
   C        0.38927        -6.25462         2.00648
   C        1.62280        -6.90032         2.00729
   C        2.72789        -6.57993         2.83639
   C        3.80106        -7.50207         2.71415
   C        4.97592        -7.31245         3.45852
   C        5.06999        -6.23220         4.29637
   C        4.01153        -5.31893         4.41448
   C        2.85408        -5.47979         3.69746
   C        3.53109        -8.54144         1.79152
   S        1.95820        -8.35023         1.10106
   C        4.38210        -9.59675         1.44012
   C        4.12992       -10.49533         0.44081
   C        5.01351       -11.53295         0.10908
   S        4.72220       -12.58466        -1.25585
   C        6.18270       -13.50028        -1.00748
   C        6.52827       -14.65933        -1.87152
   C        5.72975       -15.90216        -1.46821
   C        6.84161       -13.01785         0.08192
   C        6.20756       -11.90552         0.73053
   N        6.84303       -11.43778         1.81354
   C        7.93202       -12.09514         2.07166
   S        8.30300       -13.42657         0.91995
   C        8.75751       -11.83847         3.18468
   C        9.89838       -12.52481         3.46547
   C       10.68802       -12.33065         4.61222
   C       11.88490       -13.00097         4.95181
   C       12.39998       -12.61979         6.22563
   C       13.62817       -13.15513         6.64926
   C       14.27519       -14.07336         5.86488
   C       13.74037       -14.48187         4.63395
   C       12.56813       -13.94791         4.17082
   C       11.57494       -11.67642         6.88221
   S       10.24461       -11.22124         5.85840
   C       11.57890       -11.14584         8.18069
   C       12.27156       -11.61199         9.26559
   C       12.10048       -11.06480        10.54497
   C       12.55720       -11.56954        11.73609
   C       12.60673       -10.69090        12.92793
   O       12.10719        -9.59567        13.04867
   C       13.43634       -11.42108        13.91466
   C       13.78123       -12.68000        13.39211
   C       14.58560       -13.53666        14.12566
   C       15.02235       -13.11209        15.37219
   C       14.66464       -11.86686        15.88879
   C       13.86339       -11.00290        15.15898
   F       15.10271       -11.50159        17.09966
   F       15.80830       -13.92064        16.09206
   C       13.13403       -12.84363        12.08641
   C       12.94946       -14.04876        11.45469
   C       12.07733       -14.27298        10.36902
   N       11.35406       -14.54357         9.51908
   C       13.53913       -15.25753        11.88008
   N       14.01169       -16.26667        12.15618
   H       -2.56557        -8.60134        -1.95985
   H       -4.92083        -6.30443         1.78769
   H        0.22344        -5.56864         2.83186
   H        5.79259        -8.01074         3.36362
   H        5.96866        -6.07387         4.87291
   H        4.11700        -4.47506         5.07932
   H        2.04978        -4.76700         3.78772
   H        5.31057        -9.69273         1.98462
   H        3.22658       -10.40766        -0.14880
   H        7.59742       -14.86126        -1.77299
   H        6.31268       -14.41591        -2.91391
   H        5.94201       -16.17102        -0.43596
   H        5.99658       -16.73909        -2.10748
   H        4.66325       -15.71367        -1.56682
   H        8.41653       -11.05267         3.84532
   H       10.22432       -13.29310         2.77662
   H       14.07825       -12.82637         7.57053
   H       15.21734       -14.48644         6.19155
   H       14.27296       -15.21084         4.04273
   H       12.17387       -14.24098         3.21052
   H       10.86499       -10.34860         8.35477
   H       12.93486       -12.45269         9.15567
   H       11.60110       -10.10424        10.61945
   H       14.89122       -14.50719        13.77056
   H       13.58597       -10.03918        15.55522
*
