# ORCA input file
# SCF done       -179.626374622850          0.000941623647
! CAM-B3LYP def2-SVP def2/J RIJCOSX Grid4 TightSCF
%maxcore 5000
%tddft
    Mode sTDDFT
    Ethresh 5.0
    maxcore 5000
end

%pal
  nprocs 6
  end
* xyz 0 1
   C        8.68353        -8.94393         6.69944
   C        9.29173        -9.39127         7.86335
   F        8.66141        -9.21965         9.03096
   C       10.53874       -10.01629         7.84394
   F       11.09138       -10.42446         8.99270
   C       11.21007       -10.22150         6.64865
   C       10.60066        -9.78703         5.48864
   C        9.34914        -9.14616         5.50228
   C        9.00364        -8.76417         4.13160
   C        8.12743        -7.76422         3.79200
   C        7.26855        -7.12455         4.70697
   N        6.53340        -6.59038         5.40848
   C        8.06824        -7.19917         2.50222
   N        8.03223        -6.68334         1.47729
   C        9.95884        -9.39933         3.25901
   C       11.07817        -9.90302         4.09020
   O       12.13377       -10.34766         3.70180
   C        9.96399        -9.65866         1.91324
   C        8.91192        -9.69875         0.99140
   C        9.04043        -9.76422        -0.41368
   C        7.78579        -9.86192        -1.07740
   C        7.74360        -9.91331        -2.48197
   C        8.91492        -9.89168        -3.18842
   C       10.15431        -9.81159        -2.53124
   C       10.22556        -9.73478        -1.16622
   C        6.70356        -9.93918        -0.17960
   S        7.24411        -9.83889         1.44902
   C        5.35931       -10.21659        -0.52321
   C        4.35769       -10.48361         0.34513
   C        3.08851       -11.02295        -0.05210
   C        2.83773       -12.14728        -0.81562
   C        1.43059       -12.42151        -0.92811
   C        0.79914       -13.40980        -1.67977
   C       -0.58665       -13.47527        -1.67750
   C       -1.35672       -12.56060        -0.93895
   C       -0.74352       -11.56813        -0.20884
   C        0.64404       -11.50050        -0.21002
   S        1.62532       -10.32688         0.60995
   C       -1.23381       -14.48083        -2.43360
   N       -1.75627       -15.29711        -3.04495
   C        3.84216       -13.07147        -1.28585
   C        3.92140       -14.43730        -0.97017
   C        5.10335       -15.05378        -1.48212
   C        5.34697       -16.41240        -1.22018
   C        4.45293       -17.12285        -0.46632
   C        3.30413       -16.50937         0.06543
   C        3.03628       -15.19059        -0.17097
   C        5.92047       -14.15562        -2.19682
   S        5.17840       -12.59037        -2.24824
   C        7.22626       -14.33728        -2.66664
   C        7.94318       -13.38683        -3.34275
   C        9.29174       -13.49552        -3.71794
   C       10.27260       -14.30248        -3.19901
   C       11.47672       -14.59016        -4.01363
   O       11.82042       -14.03387        -5.03108
   C       12.13695       -15.73234        -3.33751
   C       11.46107       -16.01460        -2.13741
   C       11.87101       -17.07095        -1.34126
   C       12.95619       -17.82301        -1.76800
   C       13.62974       -17.52892        -2.95368
   C       13.22395       -16.47316        -3.75539
   F       14.67507       -18.27747        -3.32366
   F       13.35850       -18.85869        -1.02371
   C       10.38298       -15.03710        -1.96415
   C        9.79556       -14.73147        -0.76029
   C        8.94923       -13.62925        -0.54156
   N        8.27847       -12.73595        -0.27223
   C       10.01948       -15.45324         0.42947
   N       10.14056       -16.02109         1.41984
   H        7.71890        -8.46708         6.76192
   H       12.17425       -10.70393         6.63278
   H       10.93097        -9.97065         1.52922
   H        6.79432        -9.96203        -2.99303
   H        8.89630        -9.93032        -4.26730
   H       11.05968        -9.80418        -3.11900
   H       11.18016        -9.65783        -0.66991
   H        5.14196       -10.22928        -1.58074
   H        4.49949       -10.30768         1.40435
   H        1.37824       -14.11396        -2.25814
   H       -2.43260       -12.64148        -0.95737
   H       -1.32258       -10.85231         0.35254
   H        6.23168       -16.88604        -1.61702
   H        4.63008       -18.16804        -0.26436
   H        2.63034       -17.09469         0.67188
   H        2.16084       -14.72017         0.24888
   H        7.67910       -15.30093        -2.47241
   H        7.42252       -12.49529        -3.66637
   H        9.60861       -12.90345        -4.57067
   H       11.38124       -17.33791        -0.41897
   H       13.74304       -16.24553        -4.67267
*
