# ORCA input file
# SCF done       -207.874984410254          0.000540918544
! CAM-B3LYP def2-SVP def2/J RIJCOSX Grid4 TightSCF
%maxcore 5000
%tddft
    Mode sTDDFT
    Ethresh 5.0
    maxcore 5000
end

%pal
  nprocs 6
  end
* xyz 0 1
   C        3.36768        -2.61621        -3.04073
   C        4.14212        -1.46281        -3.08881
   C        3.56491        -0.17128        -2.83294
   N        4.33525         0.93351        -2.95816
   C        5.59419         0.78072        -3.25781
   C        6.17069        -0.49477        -3.44788
   N        5.46331        -1.58201        -3.38078
   C        2.19562        -0.05190        -2.49254
   C        1.41966        -1.23761        -2.49345
   C        2.00978        -2.51510        -2.76074
   N        1.25228        -3.64226        -2.73458
   C       -0.01041        -3.51449        -2.45650
   C       -0.59732        -2.25242        -2.19911
   N        0.09755        -1.15223        -2.21934
   C        1.52929         1.18136        -2.17843
   C        2.11619         2.34507        -1.84132
   C        1.36848         3.55431        -1.53912
   C        1.74513         4.84827        -1.94244
   N        2.76632         5.27294        -2.76242
   C        3.84596         4.44918        -3.24119
   C        4.99111         4.38841        -2.23034
   C        2.67232         6.64236        -2.91980
   C        1.55859         7.11543        -2.18804
   C        0.95439         5.96654        -1.57938
   C       -0.18841         5.82494        -0.80725
   C       -0.56029         4.55340        -0.41532
   C        0.19555         3.45227        -0.78628
   C        1.22206         8.46166        -2.17497
   C        1.99811         9.34174        -2.89937
   C        3.08084         8.88363        -3.63924
   C        3.44145         7.54341        -3.66755
   C        4.57000         7.12297        -4.50004
   S        4.29255         6.62573        -6.14428
   C        5.88484         6.98184        -4.14367
   C        6.40346         7.37717        -2.82121
   O        5.74883         7.98727        -1.99283
   C        7.77424         6.93335        -2.61867
   C        8.57394         7.02592        -1.50096
   N        9.75637         6.41892        -1.76328
   C       10.82504         6.23116        -0.81562
   C       10.61234         4.95649        -0.00148
   C        9.74364         5.92391        -3.02259
   C        8.52941         6.22702        -3.60059
   C        8.04862         5.91347        -4.93421
   O        8.70997         5.27966        -5.75107
   C        6.67843         6.37200        -5.16977
   C        5.95673         6.11999        -6.32453
   C        6.39778         5.43377        -7.49349
   C        5.56511         4.94721        -8.43296
   C        5.97516         4.11254        -9.54336
   C        6.93295         3.08690        -9.46348
   N        7.58942         2.53630        -8.38242
   C        7.12909         2.52136        -7.01324
   C        5.66366         2.10612        -6.90497
   C        8.48212         1.59671        -8.85821
   C        8.33838         1.46187       -10.25543
   C        7.35195         2.42642       -10.64857
   C        6.79673         2.72941       -11.88130
   C        5.80002         3.68643       -11.94057
   C        5.39738         4.34976       -10.79373
   C        9.06151         0.50577       -10.95510
   C        9.92231        -0.31184       -10.24947
   C       10.11383        -0.13589        -8.88446
   C        9.43358         0.84134        -8.16665
   C        9.85914         1.15347        -6.79702
   C       10.39069         2.42574        -6.52761
   C       10.91494         2.74078        -5.23731
   N       11.45524         3.96826        -5.01878
   C       11.46572         4.81541        -6.00377
   C       10.94983         4.49282        -7.28213
   N       10.43176         3.33232        -7.53465
   C       10.89668         1.80157        -4.18141
   C       10.35500         0.52772        -4.45660
   C        9.85499         0.20557        -5.76429
   N        9.32410        -1.01528        -6.02052
   C        9.30015        -1.88834        -5.05862
   C        9.81305        -1.58598        -3.77492
   N       10.31496        -0.42085        -3.48906
   C       11.47104         2.20447        -2.91254
   C       11.45104         1.53877        -1.75980
   H        3.81797        -3.57873        -3.21731
   H        6.18537         1.68125        -3.36345
   H        7.22329        -0.60519        -3.67249
   H       -0.60193        -4.42044        -2.44052
   H       -1.65345        -2.15715        -1.98408
   H        0.45021         1.11670        -2.21992
   H        3.18978         2.37278        -1.75557
   H        4.20963         4.86263        -4.18041
   H        3.46224         3.44776        -3.45079
   H        5.24672         5.39086        -1.89718
   H        5.87084         3.93922        -2.68381
   H        4.71240         3.80687        -1.35513
   H       -0.77242         6.68904        -0.53069
   H       -1.44561         4.40946         0.18557
   H       -0.10677         2.47192        -0.45013
   H        0.37069         8.80538        -1.60787
   H        1.76509        10.39556        -2.90358
   H        3.67077         9.58511        -4.21044
   H        8.36572         7.48574        -0.55527
   H       10.86188         7.09975        -0.15265
   H       11.76710         6.16896        -1.36607
   H        9.68659         5.01920         0.56568
   H       11.43701         4.81685         0.69172
   H       10.55655         4.09419        -0.66186
   H       10.57394         5.38517        -3.43616
   H        7.46345         5.27330        -7.56991
   H        4.51491         5.21994        -8.39821
   H        7.29046         3.49016        -6.53285
   H        7.73523         1.78619        -6.48213
   H        5.00766         2.84531        -7.35689
   H        5.38909         1.99765        -5.85816
   H        5.50837         1.15243        -7.40542
   H        7.13101         2.21837       -12.77109
   H        5.33794         3.92981       -12.88546
   H        4.63775         5.11528       -10.86453
   H        8.94840         0.40501       -12.02377
   H       10.48383        -1.07656       -10.76489
   H       10.84121        -0.74246        -8.36636
   H       11.89320         5.79017        -5.80568
   H       10.97211         5.20886        -8.09216
   H        8.86251        -2.85205        -5.28012
   H        9.79751        -2.31721        -2.97711
   H       11.96154         3.16829        -2.96533
   H       10.97221         0.58222        -1.66134
   H       11.93317         1.94146        -0.88353
*
