# ORCA input file
# SCF done       -175.043145086958          0.000998769710
! CAM-B3LYP def2-SVP def2/J RIJCOSX Grid4 TightSCF
%maxcore 5000
%tddft
    Mode sTDDFT
    Ethresh 5.0
    maxcore 5000
end

%pal
  nprocs 6
  end
* xyz 0 1
   C        1.28515        -1.03342         1.25375
   C        1.32559        -0.45093        -0.00959
   C        1.25276         0.97388        -0.17300
   N        1.29834         1.49725        -1.41721
   C        1.40321         0.68664        -2.43182
   C        1.47078        -0.71502        -2.26646
   N        1.43448        -1.26564        -1.08990
   C        1.13572         1.82370         0.95872
   C        1.09947         1.20071         2.23732
   C        1.17333        -0.22169         2.37769
   N        1.13306        -0.79693         3.60710
   C        1.02547        -0.01212         4.63751
   C        0.95386         1.39433         4.50205
   N        0.99032         1.97702         3.33796
   C        1.04688         3.24632         0.92558
   C        1.03561         4.05340        -0.17001
   C        0.92858         5.46394        -0.10932
   C        0.83701         6.29135         0.99284
   C        0.72974         7.64133         0.55768
   C        0.76768         7.57694        -0.90693
   C        0.88719         6.30432        -1.31064
   F        0.69316         8.65797        -1.69745
   C        0.60015         8.77891         1.32474
   C        0.45296        10.12417         0.89095
   C        0.31748        10.94460         1.99189
   C        0.39301        10.10820         3.19413
   C        0.55821         8.84102         2.79065
   F        0.67246         7.76567         3.58089
   C        0.11091        12.34436         2.05009
   C        0.03015        13.15585         0.96286
   C       -0.22048        14.55034         1.00533
   S       -0.30845        15.43980        -0.50735
   C       -0.66942        16.90971         0.32566
   O       -0.85948        18.05356        -0.34197
   C       -0.71476        16.74216         1.70528
   C       -0.45136        15.39605         2.05895
   C       -1.00438        17.77935         2.65335
   C       -0.89196        17.69820         4.01713
   C       -1.30710        18.93749         4.59494
   C       -1.68602        19.77718         3.45646
   C       -1.50288        19.11159         2.30625
   F       -2.13858        21.03309         3.57962
   C       -1.34964        19.29068         5.92221
   C       -1.80438        20.51081         6.49948
   C       -1.67074        20.44763         7.87100
   C       -1.09624        19.13974         8.21127
   C       -0.92375        18.47146         7.06232
   F       -0.42551        17.23293         6.93451
   C       -2.04820        21.46607         8.77579
   C       -1.85391        21.40645        10.12154
   C       -2.23790        22.37337        11.09342
   C       -3.08947        23.48387        10.85726
   C       -3.36198        24.44780        11.88603
   N       -4.19582        25.47954        11.62522
   C       -4.70947        25.59153        10.43492
   C       -4.44731        24.64142         9.42857
   N       -3.67396        23.61671         9.64872
   C       -2.78821        24.33461        13.17290
   C       -2.00859        23.18273        13.43177
   C       -1.74262        22.21598        12.41564
   N       -0.98797        21.13072        12.69659
   C       -0.50167        21.00692        13.89851
   C       -0.75294        21.96855        14.90007
   N       -1.49107        23.01538        14.67198
   C       -2.93582        25.30156        14.23573
   C       -3.42684        26.53751        14.14307
   H        1.33828        -2.10451         1.35768
   H        1.43702         1.14077        -3.41344
   H        1.55679        -1.37909        -3.11633
   H        0.99373        -0.48418         5.61052
   H        0.86568         2.04016         5.36548
   H        0.97155         3.69456         1.90685
   H        1.10216         3.60829        -1.15174
   H        0.84053         5.98413         2.01934
   H        0.94190         5.93752        -2.31707
   H        0.43943        10.42877        -0.13611
   H        0.32393        10.47214         4.20078
   H        0.00245        12.77229         3.03703
   H        0.15102        12.72674        -0.02169
   H       -0.74906        17.92986        -1.29260
   H       -0.45312        15.06277         3.07923
   H       -0.54555        16.85679         4.58244
   H       -1.68660        19.46247         1.31139
   H       -2.19714        21.34209         5.94778
   H       -0.87110        18.79210         9.19982
   H       -2.51994        22.33847         8.34773
   H       -1.32338        20.56395        10.54375
   H       -5.37433        26.42879        10.26729
   H       -4.90250        24.70683         8.44900
   H        0.09152        20.12450        14.09613
   H       -0.35353        21.86229        15.89963
   H       -2.56479        24.94101        15.18635
   H       -3.77059        26.94781        13.21087
   H       -3.49532        27.16559        15.01575
*
