# ORCA input file
# SCF done       -211.874330896648          0.000561349584
! CAM-B3LYP def2-SVP def2/J RIJCOSX Grid4 TightSCF
%maxcore 5000
%tddft
    Mode sTDDFT
    Ethresh 5.0
    maxcore 5000
end

%pal
  nprocs 6
  end
* xyz 0 1
   C       -1.53573         2.46235        -0.82424
   C       -0.59228         2.34745        -1.83414
   C       -0.61131         1.27512        -2.71506
   C       -1.58103         0.28918        -2.61590
   C       -2.52831         0.39272        -1.61048
   C       -2.50617         1.47938        -0.70606
   C       -3.59746         1.32490         0.24701
   C       -3.98244         2.24189         1.18665
   C       -3.35768         3.49341         1.37296
   N       -2.89529         4.52379         1.57763
   C       -5.07650         2.09492         2.06579
   N       -5.95320         2.04876         2.80591
   C       -4.18824         0.01206        -0.00151
   C       -3.66945        -0.44756        -1.28815
   C       -4.29308        -1.31314        -2.14506
   C       -5.57945        -1.84778        -1.92173
   N       -6.65234        -2.24679        -1.83832
   C       -3.76358        -1.71043        -3.38914
   N       -3.35883        -2.09647        -4.39162
   C       -4.96519        -0.67723         0.87797
   C       -5.25509        -2.08517         0.85346
   C       -4.31523        -3.02121         0.38590
   C       -4.64278        -4.35046         0.36543
   C       -5.91326        -4.78316         0.79323
   C       -6.83104        -3.87177         1.29885
   C       -6.48686        -2.53779         1.34831
   C       -5.99210        -6.21325         0.61214
   C       -4.76541        -6.67104         0.09743
   C       -3.80425        -5.52109        -0.08997
   C       -3.38781        -5.36741        -1.56544
   C       -4.57661        -5.32616        -2.51829
   C       -2.54979        -5.68559         0.78841
   C       -2.87894        -5.83737         2.26864
   C       -4.57616        -7.99968        -0.18754
   C       -5.62657        -8.90734         0.01671
   C       -6.84305        -8.43795         0.53237
   C       -7.03085        -7.10591         0.83773
   C       -5.45075       -10.29872        -0.32411
   N       -6.51821       -11.10907        -0.64830
   C       -6.04351       -12.34447        -0.96071
   C       -6.41389       -13.61699        -1.39242
   C       -5.23323       -14.35873        -1.46416
   N       -4.17112       -13.56330        -1.07959
   C       -4.64171       -12.32312        -0.78539
   C       -4.27074       -11.03387        -0.39674
   C       -5.02352       -15.70951        -1.86355
   C       -5.95663       -16.48955        -2.44713
   C       -5.77165       -17.84772        -2.89433
   C       -6.67062       -18.36819        -3.83999
   C       -6.49941       -19.64281        -4.31635
   C       -5.45052       -20.45042        -3.83968
   C       -4.56835       -19.95679        -2.88660
   C       -4.73071       -18.66578        -2.43058
   C       -5.51450       -21.72960        -4.50472
   C       -6.59671       -21.70889        -5.40699
   C       -7.30983       -20.37909        -5.35642
   C       -8.77667       -20.55103        -4.91768
   C       -8.91435       -21.16603        -3.53018
   C       -7.25663       -19.66095        -6.71803
   C       -5.83400       -19.46154        -7.22710
   C       -6.88004       -22.79843        -6.18531
   C       -6.08631       -23.95491        -6.07357
   C       -4.98809       -23.94770        -5.19934
   C       -4.70760       -22.85621        -4.40617
   C       -6.32202       -25.11892        -6.88025
   C       -7.50335       -25.54599        -7.40670
   C       -7.62638       -26.46652        -8.53442
   C       -6.68306       -27.34421        -8.99483
   C       -5.41837       -27.56081        -8.40737
   N       -4.37971       -27.79858        -7.97938
   C       -6.87134       -28.19719       -10.10303
   N       -6.95864       -28.91371       -10.99546
   C       -8.96277       -26.27703        -9.08344
   C       -9.69354       -25.42175        -8.22694
   C      -10.99866       -25.06714        -8.52625
   C      -11.57010       -25.56707        -9.68647
   C      -10.85698       -26.41118       -10.52616
   C       -9.55110       -26.77629       -10.23497
   C       -8.85257       -25.08559        -7.09007
   C       -9.28926       -24.66128        -5.86435
   C      -10.60822       -24.24427        -5.59733
   N      -11.65741       -23.85618        -5.33926
   C       -8.48001       -24.65565        -4.70885
   N       -7.89267       -24.69796        -3.72375
   H       -1.50253         3.30059        -0.14799
   H        0.16973         3.10539        -1.93260
   H        0.13787         1.20530        -3.48883
   H       -1.58539        -0.54214        -3.30250
   H       -5.37627        -0.13728         1.72063
   H       -3.33277        -2.68818         0.08059
   H       -7.79780        -4.19944         1.64866
   H       -7.19055        -1.81129         1.72649
   H       -2.73760        -6.20169        -1.83686
   H       -2.80554        -4.44860        -1.66927
   H       -5.09618        -6.28143        -2.52549
   H       -4.23712        -5.10903        -3.52835
   H       -5.28654        -4.55671        -2.22350
   H       -1.90502        -4.81547         0.64561
   H       -2.00102        -6.56625         0.44833
   H       -3.40901        -4.96219         2.63816
   H       -1.96415        -5.95406         2.84511
   H       -3.50451        -6.71167         2.43411
   H       -3.64223        -8.35226        -0.59693
   H       -7.64525        -9.13703         0.72013
   H       -7.97295        -6.76479         1.23966
   H       -7.46759       -10.79297        -0.74074
   H       -7.39762       -13.97671        -1.61527
   H       -3.21166       -13.86312        -1.06382
   H       -3.28872       -10.67426        -0.16410
   H       -4.02262       -16.09215        -1.70859
   H       -6.92721       -16.06046        -2.65524
   H       -7.47895       -17.74670        -4.19837
   H       -3.76771       -20.57423        -2.50749
   H       -4.05403       -18.28318        -1.68178
   H       -9.28954       -21.18171        -5.64803
   H       -9.26222       -19.57281        -4.92861
   H       -8.40192       -22.12377        -3.47453
   H       -9.96461       -21.32692        -3.29833
   H       -8.48980       -20.50855        -2.77496
   H       -7.74374       -18.68885        -6.61824
   H       -7.82542       -20.24478        -7.44528
   H       -5.25680       -18.86274        -6.52607
   H       -5.84825       -18.94984        -8.18667
   H       -5.33170       -20.41815        -7.35460
   H       -7.67898       -22.76151        -6.91244
   H       -4.37717       -24.83569        -5.13108
   H       -3.87139       -22.87703        -3.72426
   H       -5.43115       -25.67423        -7.14352
   H      -11.55900       -24.40823        -7.88245
   H      -12.58331       -25.29353        -9.93841
   H      -11.32280       -26.78977       -11.42312
   H       -9.01230       -27.43012       -10.90081
*
