# ORCA input file
# SCF done       -200.575341859403          0.000779493881
! CAM-B3LYP def2-SVP def2/J RIJCOSX Grid4 TightSCF
%maxcore 5000
%tddft
    Mode sTDDFT
    Ethresh 5.0
    maxcore 5000
end

%pal
  nprocs 6
  end
* xyz 0 1
   C        6.06714       -16.52293         5.61470
   C        6.16319       -17.78865         5.05401
   C        5.36347       -18.16131         3.98360
   C        4.44632       -17.27542         3.43657
   C        4.33978       -16.01190         3.99070
   C        5.14829       -15.63118         5.08578
   C        4.80908       -14.26539         5.46938
   C        5.46524       -13.50818         6.40511
   C        6.58355       -13.95427         7.14054
   N        7.49429       -14.24920         7.77400
   C        5.15805       -12.17353         6.73925
   N        4.96841       -11.08572         7.05741
   C        3.64770       -13.88566         4.67702
   C        3.50593       -14.87769         3.62553
   C        2.94358       -14.65837         2.39359
   C        2.44260       -13.40304         1.99225
   N        2.07558       -12.37760         1.62811
   C        2.89850       -15.62198         1.36743
   N        2.81908       -16.37585         0.50548
   C        2.82316       -12.82971         4.97597
   C        1.46959       -12.61552         4.62986
   C        0.89914       -11.36950         4.82590
   C       -0.42373       -11.04985         4.57338
   C       -1.37767       -12.05392         4.09726
   C       -1.06228       -13.34932         3.87986
   S        0.50343       -13.99928         4.11135
   C       -2.61575       -11.36774         3.97574
   C       -2.46502       -10.03115         4.36807
   C       -3.67655        -9.31292         4.23390
   C       -4.68114       -10.10103         3.77180
   S       -4.21119       -11.74017         3.47290
   C       -1.09713        -9.81532         4.75032
   C       -0.49016        -8.63522         5.23011
   C       -1.13882        -7.52406         5.66883
   C       -0.47844        -6.36878         6.14916
   S        1.24847        -6.18469         6.03215
   C        1.18693        -4.62502         6.80106
   C       -0.11714        -4.27629         7.12418
   C       -1.05043        -5.25595         6.75327
   C       -2.52853        -5.10697         6.95112
   C       -2.86989        -3.88952         7.82312
   C       -4.27723        -3.58911         7.67764
   N       -5.38811        -3.37629         7.51977
   C       -2.00886        -2.68421         7.39421
   C       -2.43568        -1.48294         8.07812
   N       -2.75408        -0.54001         8.63746
   C       -0.53930        -2.97461         7.73239
   C        2.39904        -3.88453         6.97752
   C        2.61191        -3.00532         8.01238
   C        3.76767        -2.24625         8.17957
   C        4.88165        -2.32751         7.23782
   C        4.91148        -3.16594         6.17605
   S        3.62041        -4.20873         5.75693
   C        5.85116        -1.40525         7.71958
   C        5.39622        -0.79546         8.89127
   C        6.32252         0.15369         9.37524
   C        7.42585         0.22954         8.58437
   S        7.39437        -0.83797         7.22671
   C        4.09239        -1.33052         9.21042
   C        3.26905        -1.06221        10.31043
   C        3.56342        -0.27392        11.39387
   C        2.65542        -0.15163        12.44873
   C        2.77652         0.62505        13.58220
   C        2.06751         0.36965        14.82250
   C        1.02535        -0.50207        15.02592
   C        0.41864        -1.31351        14.04661
   N       -0.11957        -2.01923        13.31551
   C        0.39814        -0.70947        16.27170
   N       -0.16077        -0.93323        17.24969
   C        2.70795         1.18075        15.85165
   C        3.71840         1.96446        15.25031
   C        4.50739         2.80582        16.01584
   C        4.28192         2.86518        17.38342
   C        3.28238         2.10683        17.97369
   C        2.48626         1.25922        17.21691
   C        3.69142         1.72376        13.81375
   C        4.25189         2.54280        12.86391
   C        5.13512         3.60115        13.15716
   N        5.88652         4.45487        13.31867
   C        3.94108         2.51616        11.48890
   N        3.70155         2.58925        10.36791
   H        6.69556       -16.25335         6.44749
   H        6.87137       -18.49330         5.46240
   H        5.45279       -19.15396         3.56955
   H        3.82471       -17.57525         2.60828
   H        3.22172       -12.07981         5.64663
   H        1.56433       -10.59269         5.17855
   H       -1.78370       -14.07847         3.54619
   H       -3.81353        -8.26878         4.44618
   H       -5.69744        -9.81856         3.57817
   H        0.59165        -8.63560         5.27910
   H       -2.21722        -7.50729         5.69816
   H       -2.94003        -6.00788         7.41347
   H       -3.00930        -4.99291         5.97204
   H       -2.67133        -4.10986         8.87917
   H       -2.12235        -2.52379         6.31458
   H       -0.43664        -3.01536         8.82274
   H        0.09366        -2.16181         7.36693
   H        1.83927        -2.92844         8.76118
   H        5.75872        -3.23497         5.51238
   H        6.19298         0.77515        10.24102
   H        8.27944         0.86569         8.71398
   H        2.29392        -1.53398        10.30688
   H        4.52740         0.20187        11.45915
   H        1.80114        -0.81296        12.40377
   H        5.28989         3.39827        15.57033
   H        4.89435         3.51198        17.99297
   H        3.12001         2.17192        19.03876
   H        1.71558         0.67710        17.69434
*
