# ORCA input file
# SCF done       -178.092085278822          0.000702476873
! CAM-B3LYP def2-SVP def2/J RIJCOSX Grid4 TightSCF
%maxcore 5000
%tddft
    Mode sTDDFT
    Ethresh 5.0
    maxcore 5000
end

%pal
  nprocs 6
  end
* xyz 0 1
   C       -6.31422         0.56773        -4.83372
   C       -7.39749         0.23871        -5.63674
   C       -7.52821        -1.03112        -6.17751
   C       -6.57265        -2.00845        -5.93843
   C       -5.48990        -1.69130        -5.13750
   C       -5.35945        -0.40163        -4.57634
   C       -4.14409        -0.36268        -3.76747
   C       -3.65818         0.74362        -3.11139
   C       -4.26416         2.01521        -3.14722
   N       -4.70019         3.07782        -3.12858
   C       -2.48175         0.78754        -2.33865
   N       -1.53648         0.89989        -1.69359
   C       -3.59413        -1.70186        -3.77030
   C       -4.32265        -2.47269        -4.75370
   C       -3.85601        -3.57886        -5.42535
   C       -2.54592        -4.07581        -5.28207
   N       -1.46887        -4.47206        -5.23031
   C       -4.59712        -4.29285        -6.38339
   N       -5.16669        -4.94284        -7.14082
   C       -2.60321        -2.13748        -2.90505
   C       -2.34601        -3.41976        -2.43767
   C       -1.21662        -3.81063        -1.67226
   C       -1.26078        -5.17110        -1.26721
   C       -0.19982        -5.71134        -0.52373
   C        0.86542        -4.91345        -0.19731
   C        0.90635        -3.56960        -0.59627
   C       -0.11352        -3.01680        -1.32784
   C       -2.43762        -5.83541        -1.68889
   S       -3.45820        -4.75654        -2.57939
   C       -2.78658        -7.17438        -1.47450
   C       -3.95270        -7.73972        -1.91160
   C       -4.31947        -9.08740        -1.75445
   N       -5.54690        -9.54113        -2.20120
   C       -5.63921       -10.86971        -1.94720
   C       -6.46173       -11.97740        -2.06524
   C       -5.74210       -13.05797        -1.52107
   N       -4.51127       -12.60849        -1.08261
   C       -4.42375       -11.27520        -1.32082
   C       -3.60555       -10.16530        -1.19490
   C       -6.10471       -14.41343        -1.40418
   C       -7.33573       -14.92373        -1.70524
   C       -7.67975       -16.27888        -1.59726
   C       -8.96533       -16.85017        -1.75853
   C       -8.97470       -18.25679        -1.55438
   C      -10.17961       -18.96720        -1.66235
   C      -11.33343       -18.29115        -1.96341
   C      -11.32505       -16.90311        -2.16623
   C      -10.16254       -16.18465        -2.06616
   C       -7.69241       -18.78003        -1.25848
   S       -6.51123       -17.50074        -1.22211
   C       -7.34482       -20.10312        -1.00361
   C       -6.05920       -20.53807        -0.77646
   C       -5.76065       -21.87071        -0.50218
   C       -4.51478       -22.39457        -0.21323
   C       -4.16295       -23.79487        -0.35089
   C       -5.01655       -24.86486        -0.46169
   C       -6.42378       -24.80014        -0.42514
   N       -7.57234       -24.83103        -0.40283
   C       -4.59541       -26.20368        -0.59369
   N       -4.32791       -27.31511        -0.70455
   C       -2.70579       -23.86671        -0.36286
   C       -2.18619       -22.57419        -0.12770
   C       -0.81947       -22.35529        -0.11734
   C        0.02664       -23.43177        -0.34207
   C       -0.48126       -24.70293        -0.56212
   C       -1.84943       -24.93459        -0.57342
   C       -3.30318       -21.66756         0.10561
   C       -3.20888       -20.44306         0.72256
   C       -1.99238       -19.78513         0.98985
   N       -1.04616       -19.17000         1.20503
   C       -4.29216       -19.72648         1.27131
   N       -5.11163       -19.11253         1.79224
   H       -6.23049         1.56090        -4.42452
   H       -8.14890         0.98642        -5.84030
   H       -8.38250        -1.26511        -6.79451
   H       -6.68352        -2.99328        -6.36290
   H       -1.98777        -1.37104        -2.45424
   H       -0.22664        -6.74466        -0.21484
   H        1.68646        -5.31921         0.37400
   H        1.75740        -2.96476        -0.32312
   H       -0.06950        -1.98290        -1.63182
   H       -2.07404        -7.78290        -0.93834
   H       -4.66197        -7.10608        -2.43108
   H       -6.23547        -8.96327        -2.65193
   H       -7.44129       -12.02929        -2.49410
   H       -3.81913       -13.18965        -0.64135
   H       -2.62312       -10.11272        -0.77266
   H       -5.34541       -15.08986        -1.03113
   H       -8.11589       -14.25159        -2.03024
   H      -10.19402       -20.03446        -1.50747
   H      -12.26530       -18.82938        -2.04664
   H      -12.25021       -16.39984        -2.40268
   H      -10.16368       -15.11697        -2.22096
   H       -8.14832       -20.82647        -0.96127
   H       -5.26069       -19.81377        -0.85510
   H       -6.57895       -22.56979        -0.60630
   H       -0.41154       -21.37148         0.04895
   H        1.09442       -23.27383        -0.34514
   H        0.19475       -25.52724        -0.73113
   H       -2.22537       -25.92898        -0.74889
*
