# ORCA input file
# SCF done       -206.020616731883          0.000262952234
! CAM-B3LYP def2-SVP def2/J RIJCOSX Grid4 TightSCF
%maxcore 5000
%tddft
    Mode sTDDFT
    Ethresh 5.0
    maxcore 5000
end

%pal
  nprocs 6
  end
* xyz 0 1
   C        0.89606         4.16304        -0.93516
   C       -0.46210         4.30409        -1.00394
   F       -0.98754         5.32218        -1.70885
   C       -1.34299         3.42226        -0.36289
   C       -0.82838         2.38031         0.35717
   C        0.56443         2.18723         0.46144
   C        1.44367         3.09812        -0.19393
   C        2.84513         2.93561        -0.09023
   C        3.34625         1.89572         0.64433
   C        2.46271         0.97239         1.27400
   C        1.10675         1.10934         1.19635
   C        3.25360        -0.07403         1.94588
   O        2.85450        -0.99740         2.61823
   C        4.67105         0.20590         1.57817
   C        4.72104         1.51238         0.96007
   C        5.79385         2.36592         0.91488
   C        7.06019         2.07258         1.45462
   N        8.10081         1.88888         1.90453
   C        5.72919         3.68287         0.41327
   N        5.73333         4.76154         0.02181
   C        5.60217        -0.76488         1.80430
   C        6.88935        -0.91172         1.25045
   C        7.42878        -0.33380         0.10871
   C        8.73860        -0.73252        -0.11482
   C        9.21446        -1.63334         0.86332
   S        8.03453        -2.00303         2.03003
   C       10.56539        -1.93389         0.57352
   C       10.94870        -1.22418        -0.58033
   C        9.81247        -0.44438        -1.04777
   C        9.76892         0.40825        -2.11165
   C       10.88268         0.62610        -2.94919
   N       11.78528         0.79965        -3.63479
   C        8.59525         1.12288        -2.43228
   N        7.63256         1.69277        -2.68401
   C       12.27728        -1.43296        -0.93682
   C       12.91538        -2.29895        -0.06057
   S       11.84823        -2.86336         1.21499
   C       14.26649        -2.71817        -0.09100
   C       15.26497        -2.33691        -0.99569
   O       14.97467        -1.49529        -2.00574
   C       16.01846        -1.13355        -2.88624
   C       16.50722        -2.91541        -0.70596
   C       16.48452        -3.74090         0.40038
   S       14.89693        -3.81133         1.10232
   C       17.55792        -4.46237         0.97527
   C       17.49778        -5.32655         2.05611
   C       18.74738        -5.84959         2.37456
   C       19.77298        -5.37974         1.53324
   S       19.18871        -4.30064         0.34243
   C       20.99890        -5.95409         1.94510
   C       20.74501        -6.79148         3.05243
   C       19.32460        -6.76561         3.34693
   C       18.67404        -7.48094         4.30871
   C       19.37078        -8.35769         5.16736
   N       19.95339        -9.06139         5.86033
   C       17.27922        -7.39069         4.49932
   N       16.14620        -7.30966         4.65387
   C       21.88620        -7.42026         3.52896
   C       23.01807        -7.08083         2.80105
   S       22.64585        -5.93310         1.51732
   C       24.35363        -7.48592         3.00671
   C       24.81701        -8.54486         3.72891
   C       26.23355        -8.52672         4.19670
   O       27.10617        -7.77998         3.81759
   C       26.30704        -9.55894         5.24635
   C       27.33873        -9.85799         6.08908
   C       27.16550       -10.87262         7.05697
   C       25.91670       -11.55583         7.13804
   C       25.74712       -12.55747         8.11335
   C       26.78166       -12.85512         8.95628
   C       28.01745       -12.19675         8.89124
   C       28.19851       -11.22043         7.95155
   F       26.62286       -13.81198         9.88767
   C       24.86764       -11.23076         6.24662
   C       25.06452       -10.25349         5.30952
   C       24.18725        -9.73272         4.26409
   C       23.11753       -10.40773         3.73498
   C       22.41914        -9.99569         2.58408
   N       21.83746        -9.70671         1.63700
   C       22.64984       -11.64513         4.22548
   N       22.23301       -12.65371         4.57962
   H        1.54448         4.86337        -1.43797
   H       -2.40545         3.58455        -0.45178
   H       -1.48678         1.68743         0.85920
   H        3.48736         3.63315        -0.60403
   H        0.45505         0.40416         1.69004
   H        5.27008        -1.56378         2.46101
   H        6.86668         0.31160        -0.54143
   H       12.77641        -0.98920        -1.77664
   H       15.56609        -0.45799        -3.60969
   H       16.42153        -2.00837        -3.40433
   H       16.82346        -0.61654        -2.35640
   H       17.40546        -2.74968        -1.27281
   H       16.57905        -5.54736         2.56929
   H       21.91583        -8.05932         4.39242
   H       25.12345        -6.83495         2.60357
   H       28.27536        -9.32524         6.02071
   H       24.81021       -13.08672         8.18967
   H       28.79683       -12.47402         9.58316
   H       29.14137       -10.69904         7.88276
   H       23.92855       -11.75337         6.33692
*
