# ORCA input file
# SCF done       -184.488849556130          0.000774019258
! CAM-B3LYP def2-SVP def2/J RIJCOSX Grid4 TightSCF
%maxcore 5000
%tddft
    Mode sTDDFT
    Ethresh 5.0
    maxcore 5000
end

%pal
  nprocs 6
  end
* xyz 0 1
   C        0.41645         0.31352        -4.16169
   C        0.38366         0.25332        -5.54715
   C       -0.68272        -0.33187        -6.21478
   C       -1.75447        -0.86626        -5.51515
   C       -1.73201        -0.81152        -4.13210
   C       -0.64207        -0.22636        -3.44833
   C       -0.87010        -0.33653        -2.01240
   C       -0.07396         0.19294        -1.02997
   C        1.08333         0.96120        -1.27670
   N        2.03374         1.59301        -1.40071
   C       -0.30108         0.07834         0.35675
   N       -0.42067         0.02000         1.49809
   C       -2.07387        -1.13737        -1.84028
   C       -2.70787        -1.24620        -3.14598
   C       -4.04858        -1.41649        -3.37124
   C       -5.00203        -1.50261        -2.33558
   N       -5.80500        -1.51918        -1.51499
   C       -4.63725        -1.41588        -4.65159
   N       -5.16652        -1.43454        -5.66983
   C       -2.44926        -1.73549        -0.66609
   C       -3.26924        -2.86505        -0.47883
   C       -3.83431        -3.27539         0.73153
   C       -3.75016        -2.49475         2.00321
   C       -2.51016        -2.89528         2.80820
   C       -4.48648        -4.50003         0.63004
   C       -4.42993        -5.07511        -0.62944
   S       -3.55833        -4.05330        -1.72758
   C       -4.95991        -6.30241        -1.09853
   C       -5.65919        -7.17806        -0.33250
   C       -6.20373        -8.40133        -0.79346
   C       -6.15747        -8.97441        -2.05546
   C       -6.82918       -10.19263        -2.10533
   C       -7.39713       -10.55976        -0.86980
   S       -7.09808        -9.40297         0.34593
   C       -8.05813       -11.80089        -1.02778
   C       -7.91649       -12.22051        -2.36235
   C       -7.13848       -11.22436        -3.08358
   C       -6.78114       -11.25086        -4.39902
   C       -6.00837       -10.22511        -4.98353
   N       -5.37587        -9.39223        -5.45335
   C       -7.16770       -12.30057        -5.25950
   N       -7.49176       -13.14835        -5.95977
   C       -8.53902       -13.43874        -2.61515
   C       -9.16402       -13.95935        -1.49089
   S       -8.96100       -12.90840        -0.09521
   C       -9.87751       -15.18491        -1.44239
   C      -10.59267       -15.78860        -0.40978
   C      -10.73655       -15.26362         0.98312
   C       -9.53851       -15.66666         1.84583
   C      -11.15198       -17.00463        -0.80131
   C      -10.89485       -17.36645        -2.11221
   S       -9.92263       -16.15272        -2.89260
   C      -11.30922       -18.54336        -2.76742
   C      -10.98576       -18.86388        -4.05111
   C      -11.40750       -20.06237        -4.65657
   C      -11.00464       -20.54217        -5.87502
   C      -11.71511       -21.55237        -6.64763
   C      -12.63676       -22.45322        -6.18387
   C      -13.03339       -22.59129        -4.83720
   N      -13.40059       -22.76159        -3.76236
   C      -13.28776       -23.40760        -6.99398
   N      -13.85042       -24.20900        -7.59286
   C      -11.25216       -21.42949        -8.02382
   C      -10.19268       -20.49455        -8.06788
   C       -9.58704       -20.17084        -9.27034
   C      -10.04076       -20.78735       -10.42708
   C      -11.07249       -21.71404       -10.38441
   C      -11.68801       -22.04516        -9.18635
   C       -9.91911       -20.04724        -6.70965
   C       -8.74684       -19.48673        -6.27606
   C       -7.70549       -19.08494        -7.13991
   N       -6.83102       -18.73240        -7.79403
   C       -8.36893       -19.36726        -4.92110
   N       -7.98084       -19.30374        -3.84259
   H        1.25545         0.76879        -3.66180
   H        1.20537         0.66632        -6.11204
   H       -0.68013        -0.37398        -7.29320
   H       -2.57599        -1.32490        -6.04147
   H       -1.99317        -1.36474         0.24153
   H       -4.64334        -2.69668         2.59679
   H       -3.72046        -1.42591         1.79141
   H       -2.52360        -3.96132         3.02424
   H       -2.48749        -2.34885         3.74681
   H       -1.59975        -2.66548         2.26016
   H       -4.99309        -4.96003         1.45910
   H       -4.78330        -6.52642        -2.14088
   H       -5.83540        -6.94939         0.70914
   H       -5.65865        -8.51890        -2.89047
   H       -8.54979       -13.94101        -3.56566
   H      -11.64599       -15.68099         1.41912
   H      -10.83805       -14.17678         0.97484
   H       -9.45973       -16.75004         1.89530
   H       -9.65627       -15.27925         2.85418
   H       -8.61268       -15.27545         1.43130
   H      -11.73763       -17.62102        -0.14193
   H      -11.88661       -19.24223        -2.17547
   H      -10.40569       -18.15512        -4.62657
   H      -12.17550       -20.61093        -4.12850
   H       -8.78931       -19.44747        -9.31746
   H       -9.58333       -20.53968       -11.37268
   H      -11.40711       -22.18351       -11.29679
   H      -12.49184       -22.76270        -9.17272
*
