# ORCA input file
# SCF done       -193.280684980107          0.000829599581
! CAM-B3LYP def2-SVP def2/J RIJCOSX Grid4 TightSCF
%maxcore 5000
%tddft
    Mode sTDDFT
    Ethresh 5.0
    maxcore 5000
end

%pal
  nprocs 6
  end
* xyz 0 1
   C        1.31499         4.25525         2.41340
   C        1.78430         4.90441         3.52628
   C        3.14761         4.97361         3.88241
   N        4.24064         5.07032         4.21914
   C        0.98313         5.55434         4.48881
   N        0.39638         6.08219         5.32319
   C        2.12578         3.49130         1.47444
   C        1.26322         2.83286         0.56497
   C        1.72593         2.02512        -0.44527
   C        3.10972         1.86247        -0.56662
   C        3.96564         2.52970         0.34287
   C        3.49634         3.34342         1.36653
   S        5.63754         2.19979         0.00583
   C        5.17145         1.18308        -1.33213
   C        3.83294         1.09355        -1.51865
  Br        6.49549         0.33969        -2.35731
   C       -0.13900         3.16849         0.87788
   O       -1.11536         2.77846         0.27488
   C       -0.07462         4.12508         2.01029
   C       -1.08969         4.91061         2.48326
   C       -2.47596         4.82811         2.24569
   C       -3.27682         3.79915         1.76635
   C       -4.61902         4.15130         1.73525
   C       -4.85871         5.46927         2.18735
   S       -3.43489         6.25034         2.68564
   C       -6.24146         5.73947         2.06972
   C       -6.88333         4.59748         1.55746
   C       -5.88618         3.55699         1.34402
   C       -6.10756         2.29248         0.88650
   C       -5.08006         1.33256         0.75398
   N       -4.26968         0.52802         0.65824
   C       -7.39984         1.84824         0.53156
   N       -8.45025         1.49447         0.23843
   C       -8.25425         4.77668         1.39262
   C       -8.66403         6.04661         1.76395
   S       -7.32852         7.03139         2.34174
   C       -9.97463         6.58007         1.68972
   C      -10.35901         7.87642         1.97475
   C      -11.70940         8.15735         1.77978
   C      -12.47914         7.09797         1.33867
  Se      -11.44062         5.54204         1.12503
   C      -13.86380         7.12092         1.03898
   C      -14.66395         6.04716         0.68375
   C      -15.97903         6.43168         0.43679
   C      -16.18278         7.81402         0.59676
   S      -14.75808         8.63306         1.06747
   C      -17.53488         8.10828         0.30836
   C      -18.19509         6.90905        -0.03387
   C      -17.23975         5.81702         0.04227
   C      -17.46755         4.49580        -0.20391
   C      -16.44562         3.52862        -0.09189
   N      -15.61254         2.74662        -0.00036
   C      -18.73500         4.00965        -0.59095
   N      -19.76187         3.61721        -0.91541
   C      -19.53118         7.10698        -0.35980
   C      -19.91404         8.43658        -0.24436
   S      -18.56122         9.46189         0.23840
   C      -21.18226         8.95324        -0.58740
   C      -21.72389        10.17902        -0.34719
   C      -21.36995        11.24918         0.55962
   C      -20.83666        11.09962         1.81390
   C      -20.60202        12.17052         2.69876
   N      -20.37717        13.01383         3.44419
   C      -20.55940         9.84035         2.38380
   N      -20.35908         8.82887         2.88855
   C      -21.96247        12.47415         0.03498
   C      -22.86499        12.13039        -1.00372
   C      -22.82535        10.66995        -1.22201
   O      -23.49408        10.01215        -1.98381
   C      -23.61272        13.07131        -1.66901
   C      -23.45186        14.41168        -1.30145
   C      -22.53773        14.74422        -0.27241
   C      -21.78919        13.79225         0.40921
   S      -22.48806        16.45726         0.00930
   C      -23.68198        16.70160        -1.23819
   C      -24.09703        15.55993        -1.83688
  Br      -24.26391        18.43966        -1.63329
   H        1.04125         1.53489        -1.11939
   H        4.18867         3.83397         2.03002
   H        3.37278         0.51084        -2.29559
   H       -0.80577         5.74630         3.11281
   H       -2.88122         2.85005         1.45642
   H       -8.94132         4.03811         1.01304
   H       -9.65227         8.61499         2.31514
   H      -12.13518         9.13076         1.95863
   H      -14.28235         5.04139         0.61746
   H      -20.21906         6.33347        -0.65040
   H      -21.78198         8.30613        -1.22143
   H      -24.30008        12.78404        -2.44905
   H      -21.10034        14.08866         1.18315
   H      -24.82731        15.52683        -2.62459
*
