# ORCA input file
# SCF done       -170.807317265983          0.000725246762
! CAM-B3LYP def2-SVP def2/J RIJCOSX Grid4 TightSCF
%maxcore 5000
%tddft
    Mode sTDDFT
    Ethresh 5.0
    maxcore 5000
end

%pal
  nprocs 6
  end
* xyz 0 1
   C       -3.24017        -2.67733        -2.76938
   C       -2.19323        -2.74594        -3.65583
   N       -2.22133        -1.93720        -4.83146
   O       -3.04380        -1.04435        -4.85764
   O       -1.44810        -2.18179        -5.73407
   C       -1.16809        -3.65675        -3.26623
   C        0.09480        -3.91038        -4.01206
   C       -1.48585        -4.26422        -2.06794
   S       -3.03084        -3.71734        -1.44889
   C       -0.76302        -5.23081        -1.30802
   C       -1.17271        -5.78327        -0.10880
   C       -0.25213        -6.70473         0.39138
   C        0.87149        -6.85460        -0.43567
   S        0.79194        -5.86673        -1.82299
   C        1.74578        -7.80451         0.15513
   C        1.17092        -8.25699         1.35304
   C       -0.10247        -7.57876         1.54459
   C       -0.96749        -7.72472         2.58829
   C       -0.70728        -8.60579         3.65932
   N       -0.49276        -9.32313         4.52753
   C       -2.17597        -7.00045         2.66558
   N       -3.15724        -6.41079         2.72777
   C        1.96076        -9.19979         2.01269
   C        3.13205        -9.46178         1.32736
   S        3.25835        -8.53175        -0.15943
   C        4.17471       -10.34957         1.69638
   C        5.37209       -10.56008         1.03831
   C        6.16802       -11.50005         1.69272
   C        5.56744       -12.01190         2.85492
   S        4.02719       -11.33356         3.14606
   C        6.45106       -12.95200         3.44394
   C        7.61227       -13.03010         2.65655
   C        7.47358       -12.12051         1.52996
   C        8.37637       -11.89323         0.53372
   C        9.62140       -12.55534         0.48366
   N       10.63365       -13.09203         0.44337
   C        8.12262       -10.97929        -0.51090
   N        7.91323       -10.23601        -1.35837
   C        8.54939       -13.93307         3.15825
   C        8.10867       -14.54414         4.31765
   S        6.50968       -13.99152         4.79734
   C        8.78998       -15.51245         5.09819
   C        8.33266       -16.14972         6.23721
   C        9.27323       -17.04648         6.74334
   C       10.45553       -17.08878         5.98458
   S       10.40846       -16.02927         4.64659
   C       11.34895       -18.02238         6.57067
   C       10.71975       -18.56816         7.70794
   C        9.39815       -17.97925         7.85202
   C        8.47133       -18.24573         8.81643
   C        8.70990       -19.17932         9.84671
   N        8.90326       -19.93932        10.68337
   C        7.21490       -17.60493         8.84428
   N        6.19369       -17.08373         8.86530
   C       11.52021       -19.49432         8.35811
   C       12.75675       -19.65960         7.73782
   S       12.91397       -18.64262         6.31064
   C       13.74652       -20.55654         8.22175
   C       15.08996       -20.78485         7.89608
   N       15.77593       -20.11849         6.87567
   O       15.11958       -19.45691         6.07216
   O       16.98537       -20.21479         6.80813
   C       15.72233       -21.77827         8.71556
   C       17.13399       -22.23282         8.59532
   C       14.85798       -22.28669         9.62715
   S       13.28953       -21.58778         9.54510
   H       -4.11479        -2.06450        -2.86606
   H        0.14491        -3.29267        -4.90277
   H        0.15188        -4.95593        -4.31534
   H        0.95777        -3.69804        -3.38075
   H       -2.09981        -5.51889         0.36721
   H        1.71168        -9.67608         2.94396
   H        5.63759       -10.04515         0.13247
   H        9.50524       -14.14669         2.71455
   H        7.36303       -15.96082         6.66199
   H       11.23943       -20.02925         9.24790
   H       17.81673       -21.41916         8.83288
   H       17.35272       -22.54559         7.57620
   H       17.31362       -23.06261         9.27386
   H       15.05317       -23.04472        10.35882
*
