# ORCA input file
# SCF done       -208.031812021739          0.000830613842
! CAM-B3LYP def2-SVP def2/J RIJCOSX Grid4 TightSCF
%maxcore 5000
%tddft
    Mode sTDDFT
    Ethresh 5.0
    maxcore 5000
end

%pal
  nprocs 6
  end
* xyz 0 1
   C       -0.27049         0.59593        -1.64912
   C        0.60252         1.32995        -0.88782
   C        1.30505         0.80914         0.21914
   N        1.90374         0.43188         1.12232
   C        0.97342         2.65521        -1.18295
   N        1.31391         3.72866        -1.40818
   C       -0.48489        -0.84235        -1.51743
   C       -1.01448        -1.33667        -2.74536
   C       -1.27645        -2.66330        -2.93161
   C       -1.03216        -3.56820        -1.87411
   C       -0.52908        -3.07603        -0.63492
   C       -0.25636        -1.69765        -0.47402
   C       -0.30501        -3.98766         0.41645
   C       -0.55864        -5.32229         0.25191
   C       -1.04915        -5.80653        -0.96990
   C       -1.28108        -4.94810        -2.01017
   C       -1.22400        -0.21149        -3.67061
   O       -1.60878        -0.24252        -4.81711
   C       -0.91906         1.01438        -2.87346
   C       -1.35502         2.21267        -3.35059
   C       -1.53984         3.43875        -2.67693
   C       -1.61253         3.70219        -1.31621
   C       -1.83999         5.04656        -1.05197
   C       -1.95902         5.82310        -2.22240
   S       -1.79680         4.89373        -3.63637
   C       -2.18411         7.16900        -1.84326
   C       -2.19268         7.24865        -0.43921
   C       -1.96641         5.91837         0.10417
   C       -1.86506         5.55643         1.41505
   C       -1.99128         6.48554         2.46931
   N       -2.10240         7.23380         3.33074
   C       -1.63068         4.21591         1.78890
   N       -1.45353         3.12084         2.07948
   C       -2.42148         8.53990         0.02857
   C       -2.60251         9.44772        -1.00173
   S       -2.46984         8.67963        -2.57778
   C       -2.88339        10.84852        -0.88115
   C       -3.30669        11.65626        -1.94312
   C       -3.63360        13.02735        -1.79901
   N       -4.03340        13.62458        -2.95510
   C       -4.04255        12.82131        -3.94212
   S       -3.55031        11.18610        -3.60087
   C       -3.52950        13.69268        -0.55739
   C       -3.06397        12.89690         0.49449
   C       -2.76134        11.51882         0.35659
   N       -2.34290        10.92906         1.50979
   C       -2.31210        11.74052         2.49002
   S       -2.79693        13.37778         2.14470
   C       -3.88940        15.07519        -0.43181
   C       -4.61430        15.82105        -1.34532
   C       -4.78013        17.14046        -0.93753
   C       -4.17174        17.41349         0.30054
   S       -3.41327        16.03361         0.96259
   C       -4.37850        18.77913         0.61255
   C       -5.12927        19.36845        -0.43060
   C       -5.39882        18.35746        -1.43953
   C       -6.06871        18.50896        -2.61687
   C       -6.60104        19.74336        -3.05024
   N       -7.03005        20.73085        -3.44286
   C       -6.26580        17.43350        -3.51039
   N       -6.43316        16.56995        -4.24595
   C       -5.39513        20.71411        -0.22139
   C       -4.85194        21.17742         0.97031
   S       -3.98772        19.89399         1.83333
   C       -4.80577        22.45956         1.55328
   C       -5.48232        23.60449         1.23193
   C       -5.22626        24.89814         1.84403
   C       -4.13382        25.24801         2.59621
   C       -3.92920        26.53485         3.13711
   N       -3.70492        27.55505         3.61366
   C       -3.04321        24.40922         2.90677
   N       -2.11209        23.79868         3.19020
   C       -6.29126        25.80677         1.43769
   C       -7.14935        25.11814         0.53542
   C       -6.67401        23.73709         0.35442
   O       -7.20096        22.88781        -0.33288
   C       -8.23524        25.71819        -0.03355
   C       -8.52033        27.06496         0.28325
   C       -7.67352        27.75971         1.19466
   C       -6.55535        27.11022         1.76678
   C       -7.97124        29.10141         1.50871
   C       -9.05061        29.72877         0.94840
   C       -9.88211        29.04422         0.04947
   C       -9.62250        27.74054        -0.27618
   H       -1.66759        -3.01872        -3.87333
   H        0.11431        -1.34931         0.47737
   H        0.07605        -3.61065         1.35406
   H       -0.38181        -6.01288         1.06278
   H       -1.24309        -6.86270        -1.08269
   H       -1.65975        -5.31472        -2.95310
   H       -1.67011         2.19307        -4.39014
   H       -1.55076         2.93552        -0.56597
   H       -2.46289         8.83102         1.06157
   H       -4.33085        13.10750        -4.93438
   H       -2.00898        11.46076         3.47974
   H       -4.98936        15.40071        -2.25910
   H       -5.95988        21.34357        -0.88431
   H       -4.12051        22.52341         2.39085
   H       -8.86580        25.17144        -0.71883
   H       -5.93791        27.66315         2.45657
   H       -7.32716        29.62526         2.19971
   H       -9.26938        30.75703         1.19456
   H      -10.72927        29.55487        -0.38347
   H      -10.25870        27.20773        -0.96766
*
