# ORCA input file
# SCF done       -221.680669689356          0.001008877512
! CAM-B3LYP def2-SVP def2/J RIJCOSX Grid4 TightSCF
%maxcore 5000
%tddft
    Mode sTDDFT
    Ethresh 5.0
    maxcore 5000
end

%pal
  nprocs 6
  end
* xyz 0 1
   C       -0.74963         1.47099        -2.04037
   C       -0.42760         2.50993        -2.87277
   C       -0.83102         2.58468        -4.22206
   N       -1.14925         2.69909        -5.31872
   C        0.41357         3.57909        -2.50083
   N        1.12581         4.44196        -2.24359
   C       -1.37295         0.22220        -2.45844
   C       -1.05531        -0.78612        -1.50079
   C       -1.46357        -2.07915        -1.66271
   C       -2.22772        -2.42395        -2.80036
   C       -2.56569        -1.41519        -3.74914
   C       -2.12485        -0.08587        -3.56006
   C       -3.33472        -1.77123        -4.87571
   C       -3.74703        -3.06251        -5.06153
   C       -3.41185        -4.05566        -4.12887
   C       -2.66874        -3.74347        -3.02284
   C       -0.27538        -0.19010        -0.40190
   O        0.21507        -0.73876         0.55605
   C       -0.27084         1.27848        -0.68287
   C        0.05706         2.15836         0.29463
   C       -0.23294         3.55073         0.33967
   C        0.51864         4.53834         0.94840
   C       -0.02182         5.80791         0.74338
   C       -1.23060         5.77265         0.02884
   S       -1.68469         4.19591        -0.41765
   C       -1.67187         7.10338        -0.18504
   C       -0.72790         7.98193         0.37155
   C        0.32862         7.19945         0.99189
   C        1.42278         7.67147         1.65347
   C        1.66948         9.05402         1.79675
   N        1.87622        10.17622         1.90573
   C        2.37658         6.81168         2.23952
   N        3.14820         6.11775         2.72622
   C       -1.04994         9.32276         0.15171
   C       -2.21216         9.45713        -0.57519
   S       -2.94376         7.91436        -0.96368
   C       -2.81886        10.68465        -1.04156
   C       -3.20758        10.86333        -2.38157
   C       -2.91976         9.90058        -3.46783
   O       -2.20976         8.94107        -3.43446
   S       -3.75807        10.42901        -4.96023
   C       -4.37160        11.92743        -4.19702
   O       -5.13672        12.66463        -4.74320
   C       -3.83835        12.02393        -2.82041
   C       -4.01365        13.14355        -1.98803
   C       -3.58779        12.98007        -0.65833
   C       -3.05936        11.77968        -0.19149
   C       -2.83872        11.74939         1.27344
   O       -2.56320        10.81236         1.95905
   S       -3.12230        13.38925         1.93936
   C       -3.60354        14.06560         0.34990
   O       -3.84536        15.22198         0.18527
   C       -4.58457        14.37586        -2.48750
   C       -5.63880        15.09122        -1.96781
   C       -5.95596        16.19534        -2.76370
   C       -5.11492        16.31559        -3.88308
   S       -3.94398        15.08761        -3.95528
   C       -5.52949        17.42760        -4.65971
   C       -6.64152        18.01526        -4.01556
   C       -6.93571        17.26637        -2.80010
   C       -7.93142        17.50269        -1.89903
   C       -8.83992        18.57278        -2.04404
   N       -9.58537        19.43570        -2.16084
   C       -8.12853        16.67729        -0.77140
   N       -8.29872        15.99832         0.13661
   C       -7.15203        19.08133        -4.73373
   C       -6.47079        19.28885        -5.93910
   S       -5.14703        18.14797        -6.15157
   C       -6.85936        20.28798        -6.85083
   C       -6.43552        20.51896        -8.13145
   C       -6.94930        21.53816        -9.03239
   C       -7.72095        22.61893        -8.69837
   C       -8.16904        23.58252        -9.62685
   N       -8.56618        24.39493       -10.33352
   C       -8.14281        22.94593        -7.39201
   N       -8.50567        23.28250        -6.35624
   C       -6.44500        21.23587       -10.36793
   C       -5.56078        20.12225       -10.27658
   C       -5.49021        19.67802        -8.88025
   O       -4.79361        18.77996        -8.43716
   C       -4.93239        19.60260       -11.37154
   C       -5.17197        20.17952       -12.63837
   C       -6.05866        21.29035       -12.74126
   C       -6.68887        21.81076       -11.58674
   C       -6.29564        21.85286       -14.01166
   C       -5.68821        21.34355       -15.12747
   C       -4.81586        20.24995       -15.02473
   C       -4.56229        19.68069       -13.80611
   H       -1.20445        -2.83184        -0.93311
   H       -2.40105         0.66171        -4.28730
   H       -3.58615        -1.00354        -5.59265
   H       -4.33296        -3.32620        -5.92913
   H       -3.74556        -5.06947        -4.29134
   H       -2.40795        -4.50443        -2.30206
   H        0.55683         1.74187         1.16389
   H        1.44112         4.33194         1.46018
   H       -0.45075        10.15716         0.46736
   H       -6.16926        14.80172        -1.07918
   H       -7.98939        19.68782        -4.43672
   H       -7.65141        20.92272        -6.47079
   H       -4.26635        18.75823       -11.27313
   H       -7.35808        22.64870       -11.70030
   H       -6.96749        22.69513       -14.08651
   H       -5.87744        21.78102       -16.09615
   H       -4.34620        19.86036       -15.91540
   H       -3.89181        18.83820       -13.72020
*
