# ORCA input file
# SCF done       -251.792798152198          0.000400448173
! CAM-B3LYP def2-SVP def2/J RIJCOSX Grid4 TightSCF
%maxcore 5000
%tddft
    Mode sTDDFT
    Ethresh 5.0
    maxcore 5000
end

%pal
  nprocs 6
  end
* xyz 0 1
   C       -2.57236         1.86609        -4.98213
   C       -1.61875         2.80019        -5.29525
   C       -1.36147         3.24712        -6.60618
   N       -1.13018         3.65705        -7.65318
   C       -0.73220         3.33936        -4.34148
   N        0.02462         3.76474        -3.59006
   C       -3.30831         1.05391        -5.94428
   C       -3.75901        -0.12704        -5.28401
   C       -4.44922        -1.09920        -5.94835
   C       -4.73535        -0.92501        -7.32150
   C       -4.30040         0.26027        -7.98249
   C       -3.57854         1.24683        -7.27161
   C       -4.60008         0.42379        -9.35006
   C       -5.29386        -0.53665       -10.03465
   C       -5.72089        -1.70347        -9.38351
   C       -5.44680        -1.89382        -8.05626
   C       -3.37604        -0.06775        -3.86157
   O       -3.53489        -0.90756        -3.00654
   C       -2.80827         1.29941        -3.67218
   C       -2.72729         1.81141        -2.41431
   C       -2.66999         3.15434        -1.97920
   C       -2.40450         3.56418        -0.67998
   C       -2.51096         4.94156        -0.52547
   C       -2.88891         5.59439        -1.71673
   S       -3.09966         4.51629        -3.01451
   C       -2.99602         6.98059        -1.45785
   C       -2.69315         7.21146        -0.10455
   C       -2.36814         5.93739         0.52318
   C       -2.00452         5.72709         1.81987
   C       -1.89112         6.78393         2.74859
   N       -1.79708         7.64091         3.50403
   C       -1.71986         4.43881         2.32153
   N       -1.49386         3.39567         2.73936
   C       -2.78786         8.55482         0.25371
   C       -3.15079         9.35056        -0.82118
   S       -3.37802         8.42083        -2.29236
   C       -3.35119        10.75589        -0.82451
   C       -3.42786        11.59954         0.27053
   C       -3.65223        12.92290        -0.10788
   C       -3.73230        13.08935        -1.50084
   S       -3.54936        11.61761        -2.34323
   C       -3.95925        14.46042        -1.78184
   C       -4.03848        15.16009        -0.56682
   C       -3.84504        14.21967         0.52592
   C       -3.84766        14.49488         1.86082
   C       -4.04414        15.80138         2.35745
   N       -4.20040        16.86139         2.76485
   C       -3.65761        13.49123         2.83488
   N       -3.50899        12.67659         3.62741
   C       -4.27593        16.52477        -0.74229
   C       -4.36291        16.86588        -2.07696
   S       -4.15514        15.47989        -3.13697
   C       -4.59116        18.15462        -2.63196
   C       -4.53970        18.51559        -3.94904
   C       -4.81135        19.88448        -4.17242
   C       -4.86298        20.56523        -5.40570
   C       -4.55460        19.90307        -6.65661
   C       -3.54889        19.01911        -6.92798
   C       -3.57303        18.56528        -8.26352
   C       -4.58619        19.08389        -9.01866
   S       -5.53907        20.17030        -8.07158
   C       -4.91331        18.80916       -10.44050
  Cl       -2.41773        17.45155        -8.88793
   C       -5.25765        21.89485        -5.35579
   C       -5.61982        22.56865        -4.16163
   C       -5.54680        21.89217        -2.92381
   C       -5.11674        20.56910        -2.96887
   S       -4.98837        19.50614        -1.59260
   C       -5.92778        22.50490        -1.66940
   C       -5.35276        22.32789        -0.44180
   C       -6.02782        23.02287         0.58360
   C       -7.12526        23.71994         0.16518
   S       -7.32939        23.53456        -1.54236
   C       -8.06487        24.54413         0.96528
  Cl       -5.50125        22.97997         2.22152
   C       -5.98334        23.90998        -4.41313
   C       -5.94380        24.25921        -5.73832
   S       -5.35651        22.94305        -6.73515
   C       -6.25063        25.53814        -6.27515
   C       -6.49858        25.87313        -7.56690
   C       -6.33190        27.28634        -8.01244
   O       -6.28527        28.26821        -7.30939
   C       -6.16365        27.20341        -9.47662
   C       -5.84605        28.19412       -10.36075
   C       -5.70403        27.87714       -11.73013
   C       -5.89284        26.53069       -12.15972
   C       -5.74169        26.22212       -13.52568
   C       -5.42080        27.21646       -14.40727
   C       -5.23273        28.54599       -14.00507
   C       -5.37497        28.86321       -12.68299
   F       -5.27617        26.92301       -15.71195
   C       -6.23103        25.52576       -11.22395
   C       -6.36796        25.85831        -9.90361
   C       -6.74669        25.06079        -8.74279
   C       -7.44864        23.88577        -8.77282
   C       -8.08920        23.34986        -7.63378
   N       -8.67997        22.93472        -6.74187
   C       -7.66398        23.12873        -9.94065
   N       -7.82541        22.45971       -10.85948
   H       -4.77467        -1.99089        -5.43354
   H       -3.26748         2.13981        -7.79148
   H       -4.26622         1.32233        -9.84789
   H       -5.51706        -0.40260       -11.08247
   H       -6.26818        -2.45060        -9.93852
   H       -5.77296        -2.79034        -7.54964
   H       -2.81750         1.07892        -1.61687
   H       -2.12993         2.87322         0.09660
   H       -2.59551         8.94528         1.23569
   H       -3.33823        11.25678         1.28460
   H       -4.37828        17.24684         0.04772
   H       -4.33472        17.81291        -4.73601
   H       -2.78938        18.73407        -6.22353
   H       -4.00205        18.78371       -11.03616
   H       -5.57979        19.57376       -10.83088
   H       -5.40433        17.83997       -10.53740
   H       -4.45869        21.75874        -0.26786
   H       -7.78174        24.50668         2.01408
   H       -9.08446        24.17535         0.85901
   H       -8.04805        25.58107         0.63086
   H       -6.29236        24.60113        -3.65080
   H       -6.20437        26.36591        -5.57444
   H       -5.70393        29.20866       -10.01975
   H       -5.88231        25.21001       -13.87157
   H       -4.98025        29.28787       -14.74592
   H       -5.23503        29.88026       -12.34906
   H       -6.36299        24.51298       -11.57109
*
