# ORCA input file
# SCF done       -274.947145827604          0.000550861183
! CAM-B3LYP def2-SVP def2/J RIJCOSX Grid4 TightSCF
%maxcore 5000
%tddft
    Mode sTDDFT
    Ethresh 5.0
    maxcore 5000
end

%pal
  nprocs 6
  end
* xyz 0 1
   C        6.11530         5.22313        -2.96393
   C        6.09018         5.05427        -4.32460
   C        7.05030         4.31375        -5.04596
   N        7.79207         3.72867        -5.69884
   C        5.12974         5.57977        -5.21410
   N        4.39989         5.95780        -6.01698
   C        7.12647         4.67180        -2.06753
   C        6.82758         5.08268        -0.73711
   C        7.59917         4.71422         0.32657
   C        8.73049         3.89752         0.10510
   C        9.03906         3.48221        -1.22224
   C        8.22067         3.88225        -2.30388
   C       10.16968         2.66699        -1.43232
   C       10.95749         2.27827        -0.38309
   C       10.65180         2.68686         0.92354
   C        9.56221         3.47991         1.16234
   C        5.61349         5.91219        -0.74726
   O        5.09072         6.43793         0.21730
   C        5.17115         5.97222        -2.15252
   C        4.05079         6.60348        -2.61439
   C        3.06729         7.34442        -1.92711
   C        1.98577         7.88969        -2.59354
   C        1.10623         8.61322        -1.77637
   C       -0.08526         9.28782        -2.15088
   C       -0.66654         9.17075        -3.46863
   C       -1.48293        10.05101        -4.12933
   C       -1.93184         9.56152        -5.37085
   C       -1.48634         8.30816        -5.68140
   S       -0.48541         7.71136        -4.41067
   C       -1.72665         7.51801        -6.91388
  Cl       -2.97014        10.47241        -6.40089
   C       -0.68190        10.04388        -1.14864
   C       -0.23342        10.07513         0.19895
   C        0.89503         9.32458         0.58344
   C        1.56673         8.64452        -0.43208
   S        3.02822         7.72437        -0.21984
   C        1.33795         9.24126         1.95953
   C        2.61532         9.18141         2.43903
   C        2.66628         9.03716         3.84204
   C        1.44737         8.97168         4.45157
   S        0.19088         9.10222         3.26916
   C        1.13324         8.81152         5.89366
  Cl        4.15515         8.95339         4.70068
   C       -1.00743        10.95185         0.99928
   C       -2.00951        11.58121         0.31922
   S       -2.07077        11.06872        -1.35935
   C       -2.86835        12.64645         0.73144
   C       -3.54782        13.37919        -0.20373
   C       -4.25859        14.54964         0.04668
   C       -4.57840        14.95528         1.42047
   C       -4.04785        14.35218         2.50739
   S       -2.91931        13.05202         2.44191
   C       -5.45891        16.06330         1.27295
   C       -5.62920        16.35777        -0.08502
   C       -6.46508        17.47764        -0.28622
   C       -6.90287        17.99199         0.89249
   S       -6.31651        17.15240         2.28944
   C       -4.84778        15.43802        -0.86447
   C       -4.63182        15.43322        -2.27402
   C       -3.49352        14.92689        -2.80667
   C       -3.18810        14.66851        -4.16832
   C       -2.11023        13.92316        -4.57208
   C       -2.02376        13.72075        -5.96476
   C       -1.06321        12.98140        -6.69159
   C        0.00626        12.23431        -6.06002
   C        0.57389        11.06817        -6.49577
   C        1.59748        10.59478        -5.64829
   C        1.84286        11.38159        -4.56198
   S        0.77808        12.74389        -4.57725
   C        2.83852        11.20030        -3.47590
  Cl        2.45875         9.13868        -5.97963
   C       -1.21255        12.97111        -8.07969
   C       -2.25927        13.65995        -8.75033
   C       -3.24174        14.37058        -8.01846
   C       -3.09968        14.36138        -6.64052
   S       -4.17205        15.16803        -5.52210
   C       -4.32589        15.08771        -8.65590
   C       -5.62337        15.18596        -8.23937
   C       -6.40234        16.01825        -9.07077
   C       -5.72136        16.57481       -10.11432
   S       -4.07198        16.05361       -10.08625
   C       -6.21833        17.48873       -11.17290
  Cl       -8.07544        16.30067        -8.77589
   C       -2.17456        13.49614       -10.13975
   C       -1.09685        12.73809       -10.55897
   S       -0.15172        12.16866        -9.20255
   C       -0.85353        12.49708       -11.92654
   C        0.13520        11.78177       -12.54234
   C        0.29573        11.62613       -13.97770
   C       -0.48485        12.17073       -14.96578
   C       -0.26397        11.97444       -16.34519
   N       -0.14588        11.85743       -17.48144
   C       -1.61030        12.99904       -14.77696
   N       -2.53545        13.67854       -14.72006
   C        1.46170        10.77753       -14.20172
   C        2.01032        10.41503       -12.93848
   C        1.20792        11.02662       -11.86841
   O        1.39748        10.91650       -10.67194
   C        3.11410         9.61989       -12.82819
   C        3.73649         9.14092       -14.00273
   C        3.19621         9.49888       -15.27136
   C        2.04999        10.32308       -15.35235
   C        3.82504         9.01691       -16.43724
   C        4.93440         8.21981       -16.35582
   C        5.46513         7.86770       -15.10603
   C        4.87885         8.31831       -13.95427
   H        7.34799         5.04053         1.32493
   H        8.48252         3.54829        -3.29509
   H       10.40115         2.35482        -2.44016
   H       11.82100         1.65316        -0.55451
   H       11.28366         2.37008         1.73982
   H        9.32158         3.79800         2.16626
   H        3.85207         6.53686        -3.67754
   H        1.87380         7.78281        -3.65633
   H       -1.72967        11.03686        -3.78608
   H       -1.81620         6.45905        -6.68194
   H       -0.89468         7.64110        -7.60913
   H       -2.63601         7.86143        -7.40219
   H        3.49639         9.26486         1.83138
   H        2.04979         8.87097         6.47536
   H        0.66176         7.84621         6.07887
   H        0.44708         9.58895         6.22666
   H       -0.80070        11.15439         2.03406
   H       -3.51242        13.01700        -1.22128
   H       -4.26340        14.67150         3.51484
   H       -6.73126        17.87989        -1.24673
   H       -7.54941        18.83447         1.04252
   H       -5.39780        15.84890        -2.91552
   H       -2.69213        14.64738        -2.13630
   H       -1.41277        13.52369        -3.86011
   H        0.26199        10.53024        -7.37021
   H        3.37326        10.26527        -3.62328
   H        2.34767        11.17806        -2.50302
   H        3.55554        12.02123        -3.47149
   H       -6.02879        14.65766        -7.39680
   H       -7.27629        17.68630       -11.01928
   H       -6.07934        17.04469       -12.15814
   H       -5.67456        18.43280       -11.15203
   H       -2.87867        13.90920       -10.83904
   H       -1.58323        12.97630       -12.56805
   H        3.50812         9.36011       -11.85686
   H        1.66727        10.57327       -16.32878
   H        3.41237         9.29060       -17.39726
   H        5.40902         7.85603       -17.25487
   H        6.34078         7.23757       -15.06017
   H        5.28274         8.05009       -12.98903
*
