# ORCA input file
# SCF done       -231.415136518921          0.000704196474
! CAM-B3LYP def2-SVP def2/J RIJCOSX Grid4 TightSCF
%maxcore 5000
%tddft
    Mode sTDDFT
    Ethresh 5.0
    maxcore 5000
end

%pal
  nprocs 6
  end
* xyz 0 1
   C        0.37915         0.49390        -0.50443
   C        1.18269         1.49783        -0.02914
   C        2.03133         1.35862         1.08933
   N        2.74333         1.29817         1.98709
   C        1.32994         2.75204        -0.65147
   N        1.49927         3.77818        -1.13873
   C        0.38221        -0.87879        -0.01052
   C       -0.14837        -1.72848        -1.02514
   C       -0.23580        -3.08004        -0.85338
   C        0.19591        -3.64874         0.36636
   C        0.70470        -2.80083         1.39274
   C        0.79335        -1.40533         1.18377
   C        1.11812        -3.37956         2.60966
   C        1.03791        -4.73160         2.80448
   C        0.53982        -5.56609         1.79276
   C        0.12829        -5.03643         0.59978
   C       -0.56855        -0.90867        -2.17398
   O       -1.00976        -1.27557        -3.23864
   C       -0.39763         0.50636        -1.72718
   C       -1.02313         1.49451        -2.42289
   C       -1.32544         2.80648        -1.99324
   C       -1.40926         3.29299        -0.69708
   C       -1.74172         4.64041        -0.66156
   C       -1.92243         5.19521        -1.94425
   S       -1.70764         4.04670        -3.18132
   C       -2.21296         6.57399        -1.79457
   C       -2.21391         6.89073        -0.42388
   C       -1.91162         5.68541         0.33281
   C       -1.77382         5.55525         1.68299
   C       -1.95148         6.63895         2.56898
   N       -2.10466         7.51834         3.28797
   C       -1.44307         4.31554         2.27066
   N       -1.17690         3.30048         2.73277
   C       -2.47091         8.23774        -0.17517
   C       -2.66370         8.95124        -1.34686
   S       -2.53157         7.93605        -2.77228
   C       -2.93084        10.33940        -1.47952
   C       -3.11583        11.25975        -0.45897
   C       -3.35535        12.53901        -0.95631
   C       -3.34929        12.59042        -2.36229
   S       -3.05228        11.06973        -3.06797
   C       -3.60589        13.92272        -2.77108
   C       -3.78203        14.71358        -1.61735
   C       -3.62904        13.87333        -0.44185
   C       -3.72619        14.25762         0.86251
   C       -4.02091        15.58867         1.22842
   N       -4.27517        16.66608         1.52628
   C       -3.55375        13.34965         1.92899
   N       -3.41579        12.61226         2.79568
   C       -4.05252        16.04074        -1.91906
   C       -4.10391        16.27242        -3.28688
   S       -3.82214        14.79994        -4.20716
   C       -4.46806        17.52345        -3.87930
   C       -5.26376        17.64613        -5.03354
   C       -5.61737        16.64247        -6.04520
   O       -5.07491        15.59270        -6.28835
   N       -6.67221        17.19091        -6.79066
   C       -6.87177        18.54629        -6.47305
   O       -7.67513        19.26002        -7.00214
   C       -5.92710        18.83235        -5.36477
   C       -5.74044        20.00530        -4.66092
   C       -4.80302        19.94614        -3.63289
   C       -4.17895        18.76421        -3.24747
   C       -3.10401        18.96466        -2.25333
   O       -2.28425        18.18455        -1.87233
   S       -3.09782        20.68832        -1.72823
   C       -4.39745        21.14772        -2.86726
   O       -4.83619        22.25138        -2.97465
   C       -7.56266        16.46990        -7.56289
   C       -7.46566        15.14001        -7.73237
   C       -8.46505        14.30815        -8.30371
   C       -8.53559        12.97253        -8.06303
   C       -9.34649        12.07012        -8.92810
   O      -10.21303        12.39720        -9.70326
   C       -8.81095        10.71792        -8.67412
   C       -9.11324         9.54394        -9.30189
   C       -8.44042         8.36247        -8.91725
   C       -7.45662         8.42259        -7.88701
   C       -6.78144         7.24357        -7.51610
   C       -7.08553         6.06935        -8.14710
   C       -8.05072         5.98901        -9.16048
   C       -8.71446         7.12442        -9.53414
   F       -6.44289         4.94352        -7.79170
   C       -7.16918         9.65071        -7.24813
   C       -7.84065        10.78059        -7.63135
   C       -7.77315        12.15308        -7.13927
   C       -7.24887        12.53005        -5.92963
   C       -7.41490        13.78692        -5.30928
   N       -7.52408        14.75675        -4.70353
   C       -6.52648        11.67107        -5.07490
   N       -5.90940        11.04610        -4.33506
   H       -0.63241        -3.70877        -1.63667
   H        1.16986        -0.78330         1.98074
   H        1.50367        -2.73283         3.38393
   H        1.35831        -5.16573         3.73966
   H        0.48296        -6.63071         1.96355
   H       -0.25674        -5.67433        -0.18234
   H       -1.38836         1.20851        -3.40441
   H       -1.27055         2.67353         0.17005
   H       -2.50987         8.68422         0.80104
   H       -3.08146        11.00207         0.58329
   H       -4.25209        16.79840        -1.18448
   H       -6.25656        20.92015        -4.90197
   H       -8.40255        17.05815        -7.90968
   H       -6.58692        14.63719        -7.35703
   H       -9.18707        14.73031        -8.99169
   H       -9.85614         9.51675       -10.08479
   H       -6.03363         7.26820        -6.73886
   H       -8.24781         5.03503        -9.62311
   H       -9.46131         7.08720       -10.31265
   H       -6.41302         9.66994        -6.47909
*
