# ORCA input file
# SCF done       -230.117085271307          0.000294900948
! CAM-B3LYP def2-SVP def2/J RIJCOSX Grid4 TightSCF
%maxcore 5000
%tddft
    Mode sTDDFT
    Ethresh 5.0
    maxcore 5000
end

%pal
  nprocs 6
  end
* xyz 0 1
   C       -0.79167        -2.09859        -0.05672
   C       -0.51249        -0.84671        -0.87545
   C        0.21584        -0.85105        -2.05486
   C        0.39603         0.32798        -2.76016
   C       -0.15936         1.50916        -2.30312
   C       -0.90611         1.51141        -1.13619
   C       -1.08398         0.33974        -0.42587
   C       -0.20428        -2.03319         1.34946
   C       -0.58795        -3.00083         2.26952
   C       -0.05084        -3.00341         3.54422
   C        0.88221        -2.04677         3.90494
   C        1.26279        -1.07680         2.99416
   C        0.71985        -1.06560         1.72144
   C       -0.39839        -3.39882        -0.73134
   C       -1.55767        -4.07855        -1.03367
   C       -2.66884        -3.29734        -0.55109
   C       -4.00650        -3.58227        -0.62993
   C       -4.50816        -4.74332        -1.24418
   N       -4.96846        -5.67378        -1.73247
   C       -4.95974        -2.69932        -0.08405
   N       -5.73746        -1.98330         0.36055
   O       -2.22622        -2.18515         0.04684
   C       -1.65775        -5.32177        -1.67169
   N       -1.68988        -6.34125        -2.19778
   C        0.93645        -3.80728        -0.91375
   C        2.07776        -3.11967        -0.51603
   C        3.23869        -3.81928        -0.80069
   C        2.99586        -5.06262        -1.43984
   S        1.33147        -5.35567        -1.67571
   C        4.23187        -5.70059        -1.66128
   C        5.25769        -4.86011        -1.17175
   C        4.66428        -3.65170        -0.62151
   C        5.31976        -2.60855        -0.03520
   C        6.72728        -2.53360         0.04032
   N        7.86846        -2.42639         0.08479
   C        4.63604        -1.51700         0.53807
   N        4.09939        -0.62489         1.01992
   C        6.51803        -5.41218        -1.26975
   C        6.49768        -6.69887        -1.81536
   S        4.85896        -7.17079        -2.28041
   C        7.56242        -7.60352        -1.93851
   C        8.73925        -7.52087        -1.22185
   C        9.85740        -8.38673        -1.28014
   C       10.83563        -8.11257        -0.36295
   C       10.53215        -7.02195         0.47299
   S        8.98952        -6.33729         0.04174
   C       11.20931        -6.43636         1.53559
   C       12.47109        -6.68336         2.10461
   C       12.76422        -5.86154         3.15863
   C       11.74517        -4.93347         3.48106
   S       10.40342        -5.14056         2.38321
   C       11.78024        -3.98980         4.48783
   C       10.76771        -3.08969         4.83845
   C        9.45989        -2.96290         4.35219
   C        8.76610        -1.94036         4.96798
   C        9.52481        -1.24709         5.94157
   S       11.10196        -1.89281         6.09515
   C        8.72839        -0.22300         6.48550
   C        7.45799        -0.26385         5.85707
   C        7.43219        -1.35569         4.91095
   C        6.35690        -1.76650         4.17394
   C        5.10441        -1.12692         4.29357
   N        4.08438        -0.61865         4.42029
   C        6.37308        -2.85873         3.28778
   N        6.32830        -3.73881         2.55175
   C        6.59919         0.72882         6.30621
   C        7.17891         1.52393         7.28604
   S        8.83403         1.01527         7.65515
   C        6.57302         2.59585         7.97259
   C        6.92140         3.12989         9.19286
   C        5.91859         4.10060         9.55157
   C        5.84264         4.87024        10.68139
   C        6.79838         4.81633        11.71162
   N        7.55113         4.81297        12.57714
   C        4.78385         5.78470        10.85242
   N        3.93046         6.53987        10.98169
   O        4.97664         4.16164         8.59941
   C        5.36586         3.37190         7.46787
   C        4.17738         2.51042         7.07470
   C        3.46746         2.72452         5.90167
   C        2.38575         1.91884         5.59059
   C        1.99735         0.90694         6.45012
   C        2.68988         0.70496         7.63193
   C        3.77414         1.50337         7.94546
   C        5.82759         4.31537         6.35334
   C        5.65652         5.68599         6.49914
   C        6.07992         6.55297         5.50661
   C        6.67633         6.06295         4.35906
   C        6.83878         4.69679         4.20478
   C        6.41887         3.82660         5.19463
   C        8.00733         2.74976         9.99270
   N        8.90538         2.39855        10.61468
   H        0.64559        -1.76454        -2.43729
   H        0.96841         0.31539        -3.67564
   H       -0.01797         2.42399        -2.85847
   H       -1.35315         2.42641        -0.77861
   H       -1.67208         0.33083         0.47926
   H       -1.31197        -3.75492         1.99383
   H       -0.35940        -3.75990         4.25028
   H        1.31881        -2.05592         4.89217
   H        1.99744        -0.33710         3.26811
   H        1.02496        -0.30067         1.02269
   H        2.04496        -2.16135        -0.03326
   H        7.41595        -4.89024        -1.00148
   H        7.42355        -8.46430        -2.57810
   H        9.90747        -9.18995        -1.99397
   H       11.74599        -8.67601        -0.26186
   H       13.13030        -7.44435         1.72697
   H       13.68391        -5.89837         3.71538
   H       12.69427        -3.93449         5.06477
   H        9.03888        -3.59411         3.59336
   H        5.58452         0.85584         5.97588
   H        3.75971         3.51572         5.22834
   H        1.84499         2.08652         4.67200
   H        1.15387         0.28175         6.20091
   H        2.38815        -0.07580         8.31398
   H        4.31390         1.34110         8.86846
   H        5.17855         6.08055         7.38267
   H        5.93807         7.61507         5.63614
   H        7.00854         6.73955         3.58643
   H        7.29382         4.30076         3.30929
   H        6.54682         2.76543         5.05072
*
