# ORCA input file
# SCF done       -217.920381614109          0.000797284079
! CAM-B3LYP def2-SVP def2/J RIJCOSX Grid4 TightSCF
%maxcore 5000
%tddft
    Mode sTDDFT
    Ethresh 5.0
    maxcore 5000
end

%pal
  nprocs 6
  end
* xyz 0 1
   C        1.19822         0.43381        -3.20378
   C        0.97747         1.44382        -2.26629
   C        0.49783         2.75605        -2.83138
   O        0.70060         3.03434        -3.97975
   O       -0.17395         3.58726        -2.03294
   C        1.25501         1.21502        -0.90700
   C        1.06066         2.19766         0.09219
   N        0.90388         2.95797         0.93754
   C        1.77021        -0.01710        -0.48359
   C        1.97651        -0.99852        -1.42531
   C        1.68326        -0.79265        -2.78478
   C        2.00467        -2.01517        -3.51829
   C        1.67210        -2.26827        -4.82231
   C        1.00337        -1.35225        -5.66397
   N        0.44916        -0.66406        -6.39510
   C        1.88810        -3.49819        -5.48143
   N        2.01592        -4.47588        -6.06941
   C        2.61740        -2.94122        -2.58571
   C        2.53837        -2.35760        -1.23012
   O        2.90593        -2.82548        -0.17532
   C        3.31785        -4.06114        -2.95730
   C        3.84617        -5.08919        -2.16009
   C        3.56243        -5.49183        -0.85802
   C        4.28569        -6.61428        -0.48821
   C        5.15398        -7.07779        -1.50721
   S        5.03623        -6.15525        -2.92755
   C        5.86418        -8.19441        -1.01732
   C        5.43982        -8.45989         0.29865
   C        4.43020        -7.47844         0.67120
   C        3.75937        -7.40061         1.85546
   C        4.00940        -8.30449         2.91052
   N        4.22211        -9.03657         3.76681
   C        2.76205        -6.43313         2.10756
   N        1.93434        -5.67149         2.32653
   C        6.08492        -9.55589         0.86516
   C        7.01009       -10.11604        -0.00146
   S        7.07213        -9.28448        -1.54632
   C        7.86169       -11.22186         0.23899
   C        8.90419       -11.66355        -0.55666
   C        9.54631       -12.77059        -0.00757
   C        8.97493       -13.18786         1.21074
   S        7.66401       -12.20254         1.68693
   C        9.69236       -14.31306         1.68182
   C       10.72899       -14.59691         0.77409
   C       10.66726       -13.63923        -0.32012
   C       11.48846       -13.57315        -1.40715
   C       12.55361       -14.47866        -1.59661
   N       13.41848       -15.21590        -1.74803
   C       11.32375       -12.59413        -2.40976
   N       11.18788       -11.79746        -3.22294
   C       11.50261       -15.68920         1.15427
   C       11.05660       -16.25913         2.33587
   S        9.65893       -15.41111         2.99030
   C       11.59930       -17.39282         3.00522
   C       10.95854       -18.02115         4.04986
   C       11.44384       -19.13912         4.71864
   C       12.73650       -19.73166         4.37130
   C       13.53531       -19.27862         3.37921
   S       13.15114       -17.93778         2.38431
   C       12.89838       -20.83022         5.25865
   C       11.78265       -20.94515         6.09379
   C       11.91420       -22.03201         6.98890
   C       13.08929       -22.69003         6.80853
   S       14.08596       -22.03182         5.55699
   C       10.85202       -19.89166         5.76214
   C        9.58007       -19.64582         6.30690
   C        8.95257       -20.42784         7.23699
   C        7.65760       -20.14606         7.69785
   C        6.96807       -20.92389         8.59558
   C        5.62249       -20.70283         9.07781
   C        4.77877       -19.67299         8.73746
   C        3.47249       -19.52029         9.24502
   N        2.40341       -19.33144         9.62011
   C        5.07517       -18.62816         7.83996
   N        5.23421       -17.74894         7.11685
   C        5.29548       -21.78734         9.99952
   C        6.41637       -22.66110        10.08762
   C        7.49818       -22.15629         9.22473
   O        8.59508       -22.66166         9.07532
   C        6.40310       -23.77701        10.87276
   C        5.24373       -24.07895        11.62210
   C        4.11843       -23.20961        11.54161
   C        4.16295       -22.05949        10.71946
   C        2.96647       -23.51970        12.29225
   C        2.92573       -24.63512        13.08407
   C        4.03435       -25.49080        13.16201
   C        5.16894       -25.21831        12.44665
   H        0.99362         0.65514        -4.23977
   H       -0.24926         3.30986        -1.10787
   H        2.00292        -0.19070         0.55625
   H        3.53180        -4.16993        -4.01457
   H        2.85694        -4.97938        -0.23109
   H        5.91329        -9.93525         1.85652
   H        9.17423       -11.18487        -1.48095
   H       12.34274       -16.07036         0.60233
   H       10.00360       -17.60914         4.34929
   H       14.47892       -19.74032         3.13532
   H       11.19952       -22.33079         7.73309
   H       13.44726       -23.54617         7.34609
   H        9.04872       -18.77765         5.93489
   H        9.43887       -21.30656         7.62255
   H        7.17826       -19.26077         7.30023
   H        7.26675       -24.42383        10.92065
   H        3.29326       -21.42317        10.68138
   H        2.11511       -22.85789        12.22876
   H        2.03823       -24.86421        13.65480
   H        3.98515       -26.36688        13.79138
   H        6.02601       -25.87368        12.50258
*
