# ORCA input file
# SCF done       -221.461833472358          0.000842224153
! CAM-B3LYP def2-SVP def2/J RIJCOSX Grid4 TightSCF
%maxcore 5000
%tddft
    Mode sTDDFT
    Ethresh 5.0
    maxcore 5000
end

%pal
  nprocs 6
  end
* xyz 0 1
   C       -1.23174        -2.09861        -5.89647
   C       -2.32046        -1.29005        -6.21536
   C       -2.62034        -0.90950        -7.63796
   O       -3.74058        -0.73976        -8.02529
   O       -1.56981        -0.77876        -8.45477
   C       -3.20584        -0.86068        -5.21266
   C       -4.30427        -0.01196        -5.50537
   N       -5.18945         0.70420        -5.62658
   C       -3.01271        -1.24224        -3.88067
   C       -1.93399        -2.04523        -3.58141
   C       -1.03212        -2.46640        -4.57631
   C        0.02371        -3.25931        -3.94710
   C        1.28049        -3.44739        -4.46271
   C        1.64314        -3.01493        -5.75365
   N        1.94581        -2.66545        -6.80446
   C        2.36538        -3.95691        -3.71679
   N        3.29682        -4.29083        -3.13613
   C       -0.39387        -3.52919        -2.59206
   C       -1.52984        -2.62501        -2.27485
   O       -2.03781        -2.44000        -1.19567
   C        0.03440        -4.45838        -1.68712
   C        0.77893        -5.63065        -1.94026
   C        1.46970        -6.36493        -0.99546
   C        2.08095        -7.48211        -1.63203
   C        1.66060        -7.40502        -3.02879
   C        0.89963        -6.31677        -3.22933
   F        1.98530        -8.31954        -3.94859
   C        2.89916        -8.44377        -1.07571
   C        3.52409        -9.53908        -1.71925
   C        4.25176       -10.26349        -0.78848
   C        4.09669        -9.61139         0.51680
   C        3.30355        -8.54608         0.33322
   F        2.90696        -7.68500         1.27339
   C        4.98497       -11.42730        -1.07775
   C        5.68103       -12.16957        -0.16460
   C        6.39275       -13.36229        -0.43179
   C        6.52350       -13.94930        -1.68249
   C        7.18722       -15.13380        -1.93557
   C        7.81954       -15.90809        -0.86996
   C        7.84234       -15.52635         0.42820
   S        7.11503       -14.08575         0.99921
   C        8.34954       -17.06446        -1.50634
   C        8.07061       -17.03428        -2.87771
   C        8.60588       -18.16317        -3.53947
   C        9.24649       -18.99510        -2.67731
   S        9.23704       -18.45291        -1.03480
   C        7.34394       -15.82746        -3.17545
   C        6.86701       -15.35743        -4.40306
   C        6.83375       -16.04957        -5.58969
   C        6.35534       -15.51933        -6.79456
   C        6.17775       -16.22652        -7.98034
   C        5.66489       -15.36088        -8.96864
   C        5.56003       -14.04870        -8.31471
   C        5.95079       -14.13011        -7.03564
   F        5.12684       -12.94806        -8.93585
   C        5.29436       -15.65092       -10.26980
   C        4.77223       -14.76785       -11.24805
   C        4.49236       -15.48168       -12.40335
   C        4.85537       -16.87968       -12.17205
   C        5.32986       -16.96141       -10.91832
   F        5.77694       -18.06741       -10.31013
   C        3.92173       -14.92939       -13.56414
   C        3.62591       -15.61515       -14.71045
   C        3.08337       -15.04526       -15.87733
   C        2.43194       -13.85288       -16.06606
   C        2.36632       -13.29203       -17.44157
   O        2.64650       -13.85715       -18.47187
   C        1.93022       -11.88430       -17.26991
   C        1.63441       -11.65855       -15.91399
   C        1.27125       -10.39286       -15.48568
   C        1.17621        -9.36374       -16.42023
   C        1.45239        -9.60516       -17.77597
   C        1.83596       -10.87949       -18.20744
   C        1.33063        -8.58262       -18.75140
   N        1.22976        -7.83975       -19.61692
   C        0.84739        -7.96001       -15.99818
   O        1.29712        -7.00502       -16.56340
   O        0.03344        -7.83086       -14.94430
   C        1.78549       -12.91760       -15.17964
   C        1.16289       -13.18620       -13.98520
   C        1.12677       -14.45812       -13.38099
   N        1.04870       -15.47930       -12.86354
   C        0.40185       -12.22650       -13.28982
   N       -0.22429       -11.45612       -12.71253
   H       -0.58146        -2.47238        -6.67370
   H       -0.71053        -0.91459        -8.03141
   H       -3.69379        -0.91838        -3.10848
   H       -0.30667        -4.30996        -0.66764
   H        1.58127        -6.10522         0.03910
   H        0.41152        -6.03284        -4.14098
   H        3.44335        -9.76820        -2.76358
   H        4.53912        -9.93252         1.43855
   H        4.95941       -11.73550        -2.11396
   H        5.68829       -11.84405         0.86639
   H        6.05911       -13.43463        -2.51023
   H        8.32096       -16.11101         1.19766
   H        8.54090       -18.36255        -4.59268
   H        9.74050       -19.91903        -2.90627
   H        6.46209       -14.35531        -4.40107
   H        7.15523       -17.08005        -5.61208
   H        6.38053       -17.27052        -8.11800
   H        5.98419       -13.32752        -6.32618
   H        4.60748       -13.71714       -11.10953
   H        4.75284       -17.68148       -12.87522
   H        3.75087       -13.86024       -13.53429
   H        3.89785       -16.65894       -14.77255
   H        3.26327       -15.58882       -16.80082
   H        1.11250       -10.19181       -14.43660
   H        2.05693       -11.06844       -19.24687
   H       -0.29248        -8.66761       -14.58398
*
