# ORCA input file
# SCF done       -260.904871406014          0.000880737463
! CAM-B3LYP def2-SVP def2/J RIJCOSX Grid4 TightSCF
%maxcore 5000
%tddft
    Mode sTDDFT
    Ethresh 5.0
    maxcore 5000
end

%pal
  nprocs 6
  end
* xyz 0 1
   C       -5.30511         5.28938         3.37252
   C       -6.11672         6.24144         2.82114
   F       -7.38079         6.36912         3.26030
   C       -5.68162         7.10396         1.80465
   C       -4.40038         6.98910         1.34247
   C       -3.52147         6.02132         1.87162
   C       -3.98073         5.15809         2.91038
   C       -3.11233         4.19462         3.47204
   C       -1.82917         4.09259         3.00313
   C       -1.38844         4.93323         1.93779
   C       -2.20222         5.88342         1.38860
   C       -0.01072         4.57946         1.56974
   O        0.70272         5.08023         0.73589
   C        0.32529         3.38961         2.42243
   C       -0.72155         3.24640         3.42465
   C       -0.62247         2.59221         4.61960
   C       -1.67370         2.50718         5.55949
   N       -2.49654         2.39436         6.35066
   C        0.55845         1.98799         5.09541
   N        1.50287         1.51974         5.55078
   C        1.36311         2.61194         2.07574
   C        1.79039         1.33074         2.60725
   C        3.11938         1.17825         3.00035
   C        4.16986         2.21406         3.02152
   O        4.06987         3.36176         2.66377
   N        5.30344         1.59044         3.54272
   C        5.06257         0.24441         3.86945
   O        5.88516        -0.50552         4.31961
   C        3.63971        -0.00358         3.52710
   C        2.85372        -1.13210         3.66747
   C        1.52995        -1.01007         3.25748
   C        0.99630         0.17934         2.74617
   C       -0.42501         0.09250         2.37804
   O       -1.12856         0.95086         1.92305
   S       -1.02504        -1.55960         2.73210
   C        0.57222        -2.12685         3.34053
   O        0.77030        -3.23635         3.73057
   C        6.55389         2.17553         3.74787
   C        6.82167         3.44282         3.41371
   C        8.05296         4.17975         3.55797
   C        8.04844         5.47468         3.07954
   C        9.19533         6.27123         3.17731
   C        9.41388         7.58815         2.77170
   C        8.38970         8.44530         2.13679
   C        7.54705         9.20114         3.21914
   N        8.24025        10.11614         4.07686
   C        8.89029         9.43521         1.07085
   N        7.80818         9.67006         0.13213
   C       10.76876         7.90970         3.14102
   C       11.47228         9.05239         3.02141
   C       12.90258         9.12658         3.42278
   C       13.41651         7.91219         4.11968
   C       12.69089         6.78249         4.25543
   C       11.36706         6.72139         3.76697
   C       10.39209         5.73025         3.78883
   C       10.37462         4.40279         4.26909
   C        9.23951         3.65568         4.15385
   C       13.20592        10.40903         4.16205
   C       12.92993        11.61054         3.67318
   C       13.18943        12.86483         4.37053
   C       12.15998        13.78475         4.57343
   C       10.73130        13.67324         4.21816
   O       10.16425        12.76440         3.65868
   N       10.13901        14.85536         4.68035
   C       11.06832        15.69522         5.33124
   O       10.78805        16.74727         5.83825
   C       12.36345        15.00125         5.24007
   C       13.60304        15.37199         5.72377
   C       14.64083        14.47242         5.51011
   C       14.45140        13.24760         4.85387
   C       15.68996        12.47380         4.66987
   O       15.84854        11.43013         4.10403
   S       17.05628        13.36423         5.43034
   C       16.02063        14.73953         5.94426
   O       16.43265        15.69338         6.53364
   C        8.78583        15.12599         4.82011
   C        7.76915        14.57497         4.14538
   C        7.82155        13.77685         2.95795
   C        6.90961        12.83385         2.61508
   C        6.73600        12.39201         1.20649
   O        7.47799        12.63050         0.27852
   C        5.45122        11.66824         1.18290
   C        4.79121        11.11745         0.12189
   C        3.55923        10.46042         0.33766
   C        3.02073        10.40036         1.65622
   C        1.78360         9.75847         1.86233
   C        1.13098         9.20017         0.79883
   C        1.64950         9.23606        -0.50256
   C        2.84610         9.86057        -0.72104
   F       -0.06085         8.60357         0.99102
   C        3.72746        10.97378         2.73849
   C        4.92952        11.58719         2.50842
   C        5.89494        12.18808         3.42423
   C        5.95983        11.97565         4.77437
   C        7.06182        12.31594         5.58729
   N        7.92982        12.54528         6.30243
   C        4.96559        11.28889         5.50254
   N        4.17094        10.76023         6.13987
   H       -5.67244         4.64599         4.15667
   H       -6.36738         7.83711         1.41039
   H       -4.04078         7.64180         0.56160
   H       -3.48610         3.55201         4.25329
   H       -1.83982         6.52596         0.60098
   H        2.00223         3.01865         1.29629
   H        3.22775        -2.05712         4.07616
   H        7.25981         1.48819         4.19291
   H        6.02565         4.02213         2.97066
   H        7.15177         5.87578         2.63019
   H        7.67098         7.78931         1.63384
   H        7.06050         8.45549         3.85380
   H        6.77807         9.74841         2.66981
   H        8.91220         9.64879         4.67264
   H        8.71199        10.86205         3.57848
   H        9.80119         9.03442         0.59548
   H        9.14058        10.39724         1.52561
   H        7.71313         8.89055        -0.50931
   H        7.96943        10.51285        -0.40687
   H       11.03194         9.95370         2.62578
   H       13.46639         9.19773         2.47373
   H       14.42783         7.97549         4.49067
   H       13.10766         5.91780         4.75048
   H       11.26169         3.98814         4.72459
   H        9.22543         2.64174         4.52177
   H       13.65675        10.29830         5.13662
   H       12.43010        11.72399         2.71980
   H       13.76774        16.30499         6.23856
   H        8.59842        15.81820         5.63105
   H        6.77696        14.77946         4.52883
   H        8.56067        14.03047         2.20741
   H        5.20692        11.17582        -0.87215
   H        1.35922         9.70670         2.85290
   H        1.09566         8.76956        -1.30152
   H        3.26304         9.90312        -1.71601
   H        3.29873        10.91542         3.72631
*
