# ORCA input file
# SCF done       -215.429569258873          0.000907090876
! CAM-B3LYP def2-SVP def2/J RIJCOSX Grid4 TightSCF
%maxcore 5000
%tddft
    Mode sTDDFT
    Ethresh 5.0
    maxcore 5000
end

%pal
  nprocs 6
  end
* xyz 0 1
   C       -3.86925        -4.84894        -6.00280
   C       -4.71606        -5.33251        -5.03773
   C       -5.64610        -4.54762        -4.33159
   N       -6.38610        -3.95666        -3.68120
   C       -4.78480        -6.69505        -4.67914
   N       -4.91943        -7.79881        -4.39184
   C       -3.99177        -3.54700        -6.65202
   C       -3.31431        -3.59043        -7.88484
   C       -3.30269        -2.50855        -8.74056
   C       -3.97257        -1.35333        -8.35358
   C       -4.63948        -1.30047        -7.12414
   C       -4.65868        -2.39640        -6.26837
  Cl       -5.45075         0.13794        -6.65451
  Cl       -3.97905         0.01416        -9.39117
   C       -2.66438        -4.91189        -8.04527
   O       -2.04254        -5.32428        -8.99567
   C       -2.89402        -5.60906        -6.75343
   C       -2.13544        -6.69590        -6.42903
   C       -1.88806        -7.23728        -5.14701
   S       -2.07266        -6.27128        -3.71031
   C       -1.56661        -7.57762        -2.70266
   C       -1.24463        -8.70047        -3.44546
   C       -1.41244        -8.50700        -4.83134
   C       -1.11629        -9.51466        -5.90219
   C       -1.14735       -10.94487        -5.40648
   S        0.01712       -11.02514        -4.01851
   O        0.09686       -12.36374        -3.50653
   O        1.24051       -10.37396        -4.39309
   C       -0.87186        -9.99704        -2.81384
   C       -1.63448        -7.34932        -1.27217
   C       -2.75255        -6.71374        -0.78981
   C       -2.86631        -6.40851         0.57956
   C       -3.86200        -5.76316         1.29519
   C       -5.22618        -5.34350         0.86039
   C       -5.24113        -4.54268        -0.45412
   N       -6.35491        -3.61083        -0.44814
   C       -6.12765        -6.58990         0.74640
   N       -6.22307        -7.27280         2.03166
   C       -3.39539        -5.68585         2.66016
   C       -3.94625        -5.10743         3.74159
   C       -3.30387        -5.18167         5.07826
   C       -2.00322        -5.93084         5.10526
   C       -1.44363        -6.45980         4.00179
   C       -2.09088        -6.35500         2.74643
   C       -1.76710        -6.77111         1.46994
   C       -0.62936        -7.42257         0.93846
   C       -0.56618        -7.70514        -0.38868
   C       -4.24446        -5.76830         6.09833
   C       -5.31635        -6.49979         5.77398
   C       -6.23428        -7.03999         6.73209
   S       -6.06459        -6.70008         8.41279
   C       -7.47540        -7.64838         8.78408
   C       -8.02433        -8.21511         7.61519
   C       -7.33677        -7.85068         6.45571
   C       -7.67568        -8.28753         5.06003
   C       -9.13623        -8.65282         4.90855
   S       -9.42083       -10.00076         6.08687
   O      -10.77465       -10.46495         6.00059
   O       -8.36730       -10.96544         5.94305
   C       -9.21204        -9.11374         7.66296
   C       -8.04488        -7.80456        10.05623
   C       -7.65935        -7.31513        11.27907
   C       -8.37465        -7.52302        12.52615
   C       -9.57829        -8.15391        12.70364
   C      -10.21265        -8.31064        13.95539
   N      -10.78072        -8.47437        14.93900
   C      -10.37054        -8.71883        11.68191
   N      -11.07403        -9.18967        10.90512
   C       -7.58995        -6.89704        13.58929
   C       -6.45010        -6.30204        13.02137
   C       -6.45215        -6.52870        11.56325
   O       -5.61197        -6.13829        10.77457
   C       -5.52161        -5.62510        13.78498
   C       -5.73370        -5.53866        15.15532
   C       -6.86467        -6.12882        15.73136
   C       -7.79792        -6.80943        14.95600
  Cl       -7.11552        -6.01563        17.42550
  Cl       -4.60391        -4.70468        16.14186
   H       -2.78739        -2.55961        -9.68661
   H       -5.17734        -2.32302        -5.32627
   H       -1.58500        -7.13319        -7.25562
   H       -0.10414        -9.31342        -6.27181
   H       -1.81488        -9.38992        -6.73221
   H       -0.82251       -11.64630        -6.16972
   H       -2.11731       -11.24166        -5.01819
   H       -0.23113        -9.87138        -1.94643
   H       -1.74837       -10.57488        -2.52232
   H       -3.55272        -6.45913        -1.46708
   H       -5.65319        -4.69541         1.63015
   H       -5.27095        -5.23502        -1.31155
   H       -4.32190        -3.95416        -0.52722
   H       -7.23297        -4.11941        -0.41549
   H       -6.35925        -3.07864        -1.31235
   H       -5.73004        -7.23691        -0.05211
   H       -7.13798        -6.28152         0.46528
   H       -5.30290        -7.61562         2.29561
   H       -6.82889        -8.08209         1.93657
   H       -4.88371        -4.57214         3.68667
   H       -3.09638        -4.14830         5.40276
   H       -1.53079        -6.02019         6.07100
   H       -0.49713        -6.97711         4.06175
   H        0.19298        -7.67172         1.59243
   H        0.32191        -8.15353        -0.80693
   H       -3.99654        -5.59052         7.13563
   H       -5.52949        -6.69924         4.73278
   H       -7.08604        -9.18126         4.83084
   H       -7.40393        -7.50998         4.34247
   H       -9.36867        -9.01424         3.91118
   H       -9.81359        -7.84852         5.17971
   H       -9.11225        -9.88457         8.42532
   H      -10.14505        -8.57596         7.82830
   H       -8.94501        -8.40383        10.05153
   H       -4.65483        -5.17562        13.32703
   H       -8.65505        -7.25053        15.43725
*
