# ORCA input file
# SCF done       -192.320508826847          0.000726190433
! CAM-B3LYP def2-SVP def2/J RIJCOSX Grid4 TightSCF
%maxcore 5000
%tddft
    Mode sTDDFT
    Ethresh 5.0
    maxcore 5000
end

%pal
  nprocs 6
  end
* xyz 0 1
   C       -0.06024         4.57565        -5.46987
   C        0.83761         3.79967        -6.16769
   C        0.81748         3.62547        -7.56650
   N        0.86067         3.43216        -8.69811
   C        1.88483         3.05480        -5.60779
   N        2.76403         2.40849        -5.24029
   C       -1.15102         5.33343        -6.05983
   C       -1.89657         5.95599        -5.01725
   C       -2.98610         6.73586        -5.27431
   C       -3.38454         6.94576        -6.61415
   C       -2.64198         6.33218        -7.66415
   C       -1.52330         5.52180        -7.36719
   C       -3.04544         6.55151        -8.99729
   C       -4.12855         7.33817        -9.28113
   C       -4.85894         7.94065        -8.24632
   C       -4.49429         7.74821        -6.94084
   C       -1.29915         5.61506        -3.71484
   O       -1.73654         5.89204        -2.62029
   C       -0.09243         4.79379        -4.03243
   C        0.76340         4.31360        -3.10148
   C        0.75707         4.71931        -1.70225
   C        0.83094         6.08131        -1.41107
   C        0.86049         6.54283        -0.10791
   C        0.94463         8.02274         0.15315
   N        1.93544         8.63274        -0.72303
   C        0.80115         5.62246         0.93007
   C        0.72598         4.27115         0.65431
   C        0.71767         3.79713        -0.65103
   C        0.61977         2.30430        -0.88460
   N        1.65219         1.56797        -0.18907
   C        2.92914         1.40842        -0.65096
   C        3.35497         1.54139        -1.92253
   C        4.68448         1.27084        -2.36407
   N        4.97659         1.32262        -3.70428
   C        6.28658         1.00559        -3.87356
   C        7.28309         0.79987        -4.82351
   C        8.43347         0.44327        -4.11468
   N        8.15270         0.44386        -2.75886
   C        6.83904         0.75700        -2.59270
   C        5.83269         0.92086        -1.64359
   C        9.70440         0.10764        -4.65658
   C       10.85448        -0.03650        -3.96660
   C       12.11105        -0.45387        -4.56552
   C       12.11204        -1.38262        -5.60706
   C       13.28817        -1.81821        -6.19175
   C       13.24711        -2.81735        -7.31835
   N       12.10785        -3.71230        -7.18153
   C       14.49820        -1.31376        -5.73209
   C       14.51682        -0.38051        -4.71173
   C       13.34249         0.04734        -4.11404
   C       13.39293         1.14144        -3.07321
   N       12.82589         2.36195        -3.60589
   C       13.54265         3.22883        -4.31466
   C       13.00027         4.27184        -5.01940
   C       13.68690         5.23066        -5.77167
   C       15.01392         5.38276        -6.13126
   C       15.46765         6.48975        -6.95082
   C       14.78844         7.64694        -7.25009
   C       15.30856         8.67974        -8.05510
   N       15.65943         9.55926        -8.70649
   C       13.51181         8.01686        -6.78172
   N       12.49433         8.42592        -6.43513
   C       16.83905         6.21297        -7.37066
   C       17.25913         5.01389        -6.73454
   C       16.15520         4.48242        -5.91229
   O       16.23821         3.48484        -5.21143
   C       18.50679         4.49483        -6.91842
   C       19.40984         5.16169        -7.77734
   C       18.99354         6.35689        -8.42885
   C       17.69466         6.87387        -8.20977
   C       19.89775         7.00972        -9.29048
   C       21.15422         6.50905        -9.49845
   C       21.56398         5.33280        -8.85420
   C       20.71000         4.67385        -8.01189
   H       -3.53487         7.19304        -4.46421
   H       -0.98427         5.07107        -8.18517
   H       -2.47993         6.08566        -9.79100
   H       -4.42822         7.50095       -10.30561
   H       -5.71107         8.55832        -8.48796
   H       -5.05250         8.21005        -6.13930
   H        1.54861         3.63218        -3.40101
   H        0.89112         6.79909        -2.21405
   H        1.13922         8.19334         1.22601
   H       -0.02412         8.47571        -0.08648
   H        2.85749         8.25811        -0.52437
   H        1.96676         9.63564        -0.57858
   H        0.80373         5.96214         1.95590
   H        0.66002         3.57008         1.47492
   H        0.67155         2.07371        -1.94859
   H       -0.34729         1.94605        -0.51338
   H        1.55684         1.57004         0.81404
   H        3.62407         1.07208         0.10541
   H        2.67257         1.84020        -2.70314
   H        4.30764         1.58799        -4.41490
   H        7.21577         0.89474        -5.88892
   H        8.78578         0.13537        -2.04287
   H        5.90395         0.80876        -0.58049
   H        9.72094        -0.01323        -5.73092
   H       10.86953         0.16501        -2.90218
   H       11.17946        -1.79596        -5.95708
   H       14.21634        -3.34355        -7.36701
   H       13.12237        -2.27440        -8.26318
   H       12.19185        -4.25512        -6.32816
   H       12.07136        -4.35877        -7.96155
   H       15.42597        -1.64239        -6.17710
   H       15.46089         0.02433        -4.37740
   H       14.43006         1.33924        -2.79599
   H       12.83709         0.86253        -2.17309
   H       11.81738         2.37744        -3.70288
   H       14.61530         3.08846        -4.29692
   H       11.92230         4.38353        -4.99498
   H       13.02927         5.98438        -6.18824
   H       18.80179         3.58399        -6.41834
   H       17.41142         7.77966        -8.72135
   H       19.57770         7.91628        -9.78328
   H       21.83943         7.01720       -10.16072
   H       22.55918         4.95106        -9.02877
   H       21.01990         3.76671        -7.51313
*
