# ORCA input file
# SCF done       -204.418209856103          0.000824222570
! CAM-B3LYP def2-SVP def2/J RIJCOSX Grid4 TightSCF
%maxcore 5000
%tddft
    Mode sTDDFT
    Ethresh 5.0
    maxcore 5000
end

%pal
  nprocs 6
  end
* xyz 0 1
   C       -0.53656         9.90617         7.06636
   C       -0.73426        11.25013         6.85511
   C       -0.89682        12.19505         7.88637
   N       -1.03106        13.01218         8.68260
   C       -0.83887        11.85616         5.58780
   N       -0.96029        12.41277         4.58974
   C       -0.54518         9.23952         8.36492
   C       -0.42111         7.83778         8.14903
   C       -0.40822         6.94731         9.18177
   C       -0.52789         7.42714        10.50654
   C       -0.64904         8.82796        10.73115
   C       -0.65386         9.72732         9.63868
   C       -0.76557         9.29528        12.05537
   C       -0.76470         8.42206        13.10927
   C       -0.64575         7.04270        12.88687
   C       -0.53022         6.55590        11.61275
   C       -0.31348         7.57216         6.70092
   O       -0.12421         6.48954         6.17749
   C       -0.38681         8.89447         6.04951
   C       -0.12238         9.13307         4.71756
   C       -0.17863         8.21762         3.66418
   S        0.80529         8.51824         2.25571
   C        0.32005         7.05914         1.48171
   C       -0.65018         6.38898         2.23986
   C       -0.95042         7.05369         3.46878
   C       -2.00255         6.59696         4.27200
   C       -2.67328         5.45407         3.90882
   S       -3.98287         4.80006         4.88333
   C       -2.36349         4.77617         2.71063
   C       -1.39239         5.24472         1.87660
   C        0.87967         6.70936         0.20221
   C        1.20686         7.70997        -0.68411
   C        1.66847         7.39411        -1.97801
   C        2.00801         8.19206        -3.06320
   C        2.17833         9.67650        -3.16364
   C        0.82745        10.40076        -3.35500
   N       -0.05561        10.16969        -2.22734
   C        2.92290        10.27675        -1.96097
   N        4.21038         9.61345        -1.73136
   C        2.30432         7.29157        -4.15445
   C        2.57710         7.53091        -5.45045
   C        2.98546         6.44222        -6.37822
   C        2.87683         5.06243        -5.80212
   C        2.50747         4.83299        -4.52937
   C        2.21036         5.91253        -3.66051
   C        1.80005         5.98509        -2.34631
   C        1.53584         4.98376        -1.38153
   C        1.09447         5.33374        -0.14854
   C        4.42113         6.69584        -6.79095
   C        5.25665         7.36811        -5.98874
   C        6.59265         7.76451        -6.27372
   S        7.47253         7.27095        -7.66161
   C        8.84608         8.25922        -7.23241
   C        8.59810         8.95852        -6.02009
   C        7.31347         8.68044        -5.48161
   C        6.87098         9.32301        -4.31675
   C        7.69860        10.22861        -3.69877
   S        7.17061        11.09522        -2.26368
   C        8.98491        10.49007        -4.21459
   C        9.43258         9.87038        -5.34992
   C       10.02315         8.39123        -7.96308
   C       10.39786         7.84937        -9.17443
   C       11.65329         8.09363        -9.84989
   C       12.70891         8.85287        -9.40485
   C       13.90502         9.04092       -10.12635
   N       14.90346         9.23728       -10.65902
   C       12.76571         9.55144        -8.18292
   N       12.89117        10.15016        -7.20921
   C       11.61282         7.38068       -11.12518
   C       10.36293         6.70535       -11.22414
   C        9.57984         6.96929       -10.00721
   O        8.46475         6.53526        -9.75682
   C       10.02645         5.95909       -12.31498
   C       10.94485         5.85075       -13.38408
   C       12.19848         6.51944       -13.29338
   C       12.51811         7.28542       -12.14703
   C       13.10671         6.40534       -14.36458
   C       12.79277         5.66809       -15.47429
   C       11.55720         5.01145       -15.56305
   C       10.65290         5.10048       -14.53931
   H       -0.31135         5.88828         8.99245
   H       -0.74023        10.78311         9.84112
   H       -0.85763        10.35875        12.22125
   H       -0.85563         8.79035        14.12025
   H       -0.64573         6.36720        13.72942
   H       -0.43781         5.49415        11.43527
   H        0.22642        10.12364         4.44854
   H       -2.29746         7.15600         5.14517
   H       -3.86726         5.66871         5.88628
   H       -2.93644         3.89889         2.45202
   H       -1.21454         4.76434         0.92804
   H        1.02951         8.73865        -0.41119
   H        2.77795         9.87998        -4.05798
   H        0.39668        10.07578        -4.31738
   H        1.02155        11.47467        -3.41685
   H       -0.42383         9.22491        -2.25768
   H       -0.83947        10.81093        -2.25114
   H        2.26668        10.23882        -1.08647
   H        3.13560        11.32983        -2.16992
   H        4.07985         8.60570        -1.78950
   H        4.51208         9.80999        -0.78086
   H        2.58708         8.53267        -5.85935
   H        2.37159         6.49295        -7.28867
   H        3.12847         4.25200        -6.46840
   H        2.43538         3.82327        -4.15188
   H        1.69496         3.94683        -1.63808
   H        0.93517         4.58252         0.60879
   H        4.74172         6.31873        -7.75032
   H        4.88403         7.70062        -5.02922
   H        5.89134         9.12446        -3.91000
   H        5.94706        10.53526        -2.20770
   H        9.61342        11.19893        -3.69804
   H       10.42011        10.09495        -5.72232
   H       10.74588         9.04604        -7.49591
   H        9.07074         5.45866       -12.36455
   H       13.47546         7.78005       -12.11248
   H       14.05716         6.91318       -14.29195
   H       13.49559         5.58767       -16.28999
   H       11.32475         4.43480       -16.44595
   H        9.69929         4.59675       -14.60175
*
