# ORCA input file
# SCF done       -188.283305199371          0.000376119052
! CAM-B3LYP def2-SVP def2/J RIJCOSX Grid4 TightSCF
%maxcore 5000
%tddft
    Mode sTDDFT
    Ethresh 5.0
    maxcore 5000
end

%pal
  nprocs 6
  end
* xyz 0 1
   C      -13.98084        -2.46393       -12.64637
   C      -13.34648        -3.54627       -12.07396
   C      -12.93511        -4.68873       -12.78638
   N      -12.57449        -5.64964       -13.30364
   C      -13.00683        -3.67830       -10.71421
   N      -12.69214        -3.87231        -9.62529
   C      -14.31284        -2.34043       -14.06502
   C      -14.93090        -1.08296       -14.27636
   C      -15.36847        -0.67082       -15.51055
   C      -15.19057        -1.54129       -16.59140
   C      -14.57244        -2.79336       -16.37125
   C      -14.12733        -3.21028       -15.12073
   S      -14.45946        -3.70584       -17.84385
   C      -15.22614        -2.42801       -18.72326
   C      -15.55354        -1.36523       -17.95676
   C      -15.01513        -0.36147       -12.99147
   O      -15.48240         0.74887       -12.81793
   C      -14.42623        -1.26831       -11.98571
   C      -14.36522        -1.00068       -10.62725
   C      -14.82424         0.15981       -10.02624
   C      -14.80635         0.35930        -8.65029
   C      -15.28757         1.47597        -7.95080
   C      -15.18543         1.36452        -6.58389
   C      -14.61386         0.15865        -6.16484
   S      -14.19182        -0.83550        -7.52878
   C      -14.41236        -0.29201        -4.84987
   C      -14.79432         0.31972        -3.65718
   C      -14.50651        -0.43568        -2.53638
   C      -13.88120        -1.64736        -2.81875
   S      -13.65164        -1.82699        -4.53725
   C      -13.50790        -2.64876        -1.90280
   C      -12.84005        -3.78585        -2.24470
   C      -12.54267        -4.84825        -1.37130
   C      -11.82717        -5.99933        -1.67868
   C      -11.75405        -6.90817        -0.63741
   C      -12.42076        -6.49111         0.50838
   S      -13.11889        -4.91389         0.27415
   C      -12.61060        -7.21580         1.70406
   C      -12.16130        -8.49767         1.99744
   C      -12.59408        -8.96508         3.22616
   C      -13.38527        -8.06122         3.92523
   S      -13.56768        -6.58469         3.01393
   C      -14.01769        -8.28072         5.16278
   C      -14.77099        -7.36604         5.83516
   C      -15.47006        -7.63836         7.02552
   C      -16.22435        -6.74588         7.78264
   C      -16.83857        -7.32077         8.87870
   C      -16.58777        -8.68633         9.00211
   S      -15.53788        -9.23444         7.72469
   C      -17.09884        -9.58066         9.95618
   C      -17.94391        -9.29563        11.03353
   C      -18.30710       -10.40814        11.75522
   C      -17.76073       -11.60452        11.26871
   S      -16.75895       -11.28585         9.87346
   C      -17.99609       -12.88734        11.75084
   C      -17.42130       -14.02702        11.21641
   C      -17.67421       -15.34443        11.55732
   C      -18.74943       -15.95453        12.28124
   C      -20.03094       -15.46691        12.43203
   C      -21.05125       -16.14012        13.12870
   N      -21.91663       -16.63004        13.70473
   C      -20.51703       -14.30104        11.81131
   N      -20.98788       -13.38835        11.29533
   C      -18.32322       -17.30704        12.64359
   C      -17.09505       -17.58274        11.98998
   C      -16.67048       -16.38409        11.23920
   O      -15.68837       -16.25713        10.53742
   C      -16.45919       -18.79461        12.09726
   C      -17.05543       -19.77775        12.89501
   C      -18.27112       -19.48663        13.55508
   C      -18.92090       -18.26141        13.44035
   S      -18.81813       -20.84180        14.49161
   C      -17.44465       -21.77022        13.99584
   C      -16.61031       -21.10192        13.17053
   H      -15.83646         0.29309       -15.63815
   H      -13.66424        -4.17602       -15.00696
   H      -15.38658        -2.55578       -19.77615
   H      -16.03655        -0.47998       -18.32945
   H      -13.94597        -1.75767        -9.97579
   H      -15.23777         0.94496       -10.64290
   H      -15.70329         2.32604        -8.46152
   H      -15.50942         2.12069        -5.89182
   H      -15.27975         1.27817        -3.62684
   H      -14.73882        -0.13251        -1.53083
   H      -13.79246        -2.49049        -0.87002
   H      -12.51793        -3.91441        -3.27077
   H      -11.38367        -6.15578        -2.64579
   H      -11.24665        -7.85315        -0.70302
   H      -11.54776        -9.06676         1.32329
   H      -12.35659        -9.93859         3.61660
   H      -13.89793        -9.27076         5.58540
   H      -14.86548        -6.36289         5.43850
   H      -16.31244        -5.70643         7.52045
   H      -17.46247        -6.78184         9.56812
   H      -18.27206        -8.29757        11.26077
   H      -18.96214       -10.39145        12.60757
   H      -18.66030       -12.96352        12.59974
   H      -16.61901       -13.89398        10.49604
   H      -15.53045       -18.98064        11.58043
   H      -19.84518       -18.08604        13.96548
   H      -17.34727       -22.77445        14.36008
   H      -15.70708       -21.51764        12.76166
*
