# ORCA input file
# SCF done       -214.389884499946          0.000633447362
! CAM-B3LYP def2-SVP def2/J RIJCOSX Grid4 TightSCF
%maxcore 5000
%tddft
    Mode sTDDFT
    Ethresh 5.0
    maxcore 5000
end

%pal
  nprocs 6
  end
* xyz 0 1
   C       -4.18926        -0.87025        -0.65267
   C       -4.93865        -1.28758         0.42461
   C       -5.31403        -2.62368         0.65671
   N       -5.65939        -3.69260         0.89968
   C       -5.41521        -0.44896         1.45022
   N       -5.82691         0.15934         2.33482
   C       -3.61310        -1.74297        -1.67216
   C       -2.85575        -0.94749        -2.56618
   C       -2.18729        -1.47707        -3.64144
   C       -2.26393        -2.86014        -3.84230
   C       -3.02228        -3.64497        -2.94470
   C       -3.70290        -3.10801        -1.85672
   S       -2.98222        -5.32362        -3.38902
   C       -1.96858        -4.96551        -4.74491
   C       -1.67089        -3.65367        -4.86513
   C       -2.93813         0.46958        -2.15129
   O       -2.48211         1.42123        -2.75730
   C       -3.77460         0.47737        -0.93713
   C       -4.27495         1.61550        -0.32998
   C       -3.77591         2.91130        -0.42604
   S       -4.88687         4.23906        -0.19061
   C       -3.68955         5.43477        -0.58454
   C       -2.42922         4.81621        -0.79337
   C       -2.47410         3.40458        -0.67240
   C       -1.27487         2.67687        -0.69780
   C       -0.08263         3.30802        -0.93370
   C        1.21071         2.56154        -0.97205
   C       -0.05691         4.71653        -1.14043
   O        1.17684         5.23241        -1.38354
   C        1.30329         6.61823        -1.58302
   C       -1.21131         5.46115        -1.04826
   C       -4.00592         6.78864        -0.67275
   C       -5.23493         7.31361        -0.33526
   C       -5.59033         8.64919        -0.46239
   C       -6.80955         9.15925        -0.05003
   C       -7.28037        10.48058        -0.18679
   C       -8.52532        10.69083         0.33810
   C       -9.09056         9.54572         0.93098
   S       -8.00510         8.18213         0.77460
   C      -10.29721         9.42278         1.59875
   C      -11.29394        10.40040         1.80861
   C      -12.34753         9.95981         2.54818
   C      -12.24681         8.60870         2.98435
   S      -10.75484         7.91843         2.35786
   C      -13.13823         7.99516         3.81977
   C      -13.09989         6.69036         4.40142
   C      -13.95777         6.43180         5.49227
   C      -13.88928         5.23186         6.15158
   C      -13.01686         4.22366         5.69355
   C      -12.20299         4.44323         4.58935
   C      -12.23973         5.66891         3.96331
   C      -13.18298         3.05415         6.52066
   C      -14.16397         3.32885         7.49116
   C      -14.64433         4.76023         7.37428
   C      -14.16884         5.48828         8.65496
   C      -14.40959         6.99130         8.69670
   C      -16.16623         4.85344         7.19642
   C      -16.66324         4.01887         6.02127
   C      -14.51634         2.38139         8.41796
   C      -13.87427         1.13256         8.40453
   C      -12.89150         0.87708         7.43550
   C      -12.54852         1.81835         6.48929
   C      -14.13997         0.13513         9.40626
   C      -15.22065         0.07406        10.21570
   C      -15.40746        -0.92062        11.21670
   C      -14.46325        -1.57807        11.94147
   C      -13.04639        -1.34594        12.14518
   C      -12.40002        -0.13699        12.12629
   C      -11.03913         0.02948        12.45334
   N       -9.93294         0.21788        12.69633
   C      -13.02701         1.09817        11.86665
   N      -13.47851         2.14259        11.71314
   C      -12.47423        -2.59078        12.64672
   C      -13.53135        -3.47763        12.97743
   C      -14.81943        -2.84719        12.63340
   O      -15.93424        -3.27882        12.82430
   C      -13.30624        -4.72150        13.51620
   C      -11.98040        -5.11292        13.72648
   C      -10.93309        -4.22747        13.37557
   C      -11.15870        -2.96547        12.83871
   S       -9.38017        -4.92651        13.70947
   C      -10.12997        -6.36536        14.30924
   C      -11.47948        -6.33295        14.26270
   H       -1.62053        -0.84449        -4.30714
   H       -4.27296        -3.74778        -1.20389
   H       -1.65506        -5.77350        -5.37702
   H       -1.05511        -3.24539        -5.64628
   H       -5.20007         1.51557         0.22623
   H       -1.28886         1.61678        -0.50318
   H        1.05180         1.50332        -0.78542
   H        1.89772         2.96158        -0.22752
   H        1.68031         2.68658        -1.94639
   H        2.36094         6.79319        -1.77424
   H        0.99957         7.18165        -0.69447
   H        0.71925         6.95532        -2.44544
   H       -1.19550         6.53372        -1.15045
   H       -3.23352         7.45950        -1.02364
   H       -5.98043         6.63574         0.06396
   H       -4.88884         9.34166        -0.90933
   H       -6.69089        11.24003        -0.66994
   H       -9.03650        11.63676         0.32246
   H      -11.20515        11.39670         1.41391
   H      -13.19639        10.56555         2.81322
   H      -13.96358         8.62051         4.14167
   H      -14.65102         7.19969         5.80248
   H      -11.54886         3.66558         4.22573
   H      -11.61479         5.83144         3.10062
   H      -13.09770         5.30193         8.76648
   H      -14.66982         5.02264         9.50575
   H      -13.83659         7.49950         7.92579
   H      -14.08897         7.37636         9.66222
   H      -15.46277         7.23013         8.57315
   H      -16.44502         5.89545         7.03442
   H      -16.64935         4.51482         8.11513
   H      -16.20126         4.35053         5.09371
   H      -17.74215         4.11432         5.92196
   H      -16.42226         2.96797         6.16565
   H      -15.24627         2.59916         9.18120
   H      -12.39795        -0.08446         7.43578
   H      -11.79109         1.60512         5.75050
   H      -13.39772        -0.65165         9.48453
   H      -16.04772         0.75315        10.06236
   H      -16.42834        -1.24252        11.39998
   H      -14.12881        -5.37293        13.76758
   H      -10.32998        -2.32720        12.57978
   H       -9.50249        -7.15938        14.66492
   H      -12.11290        -7.13654        14.59228
*
