# ORCA input file
# SCF done       -216.880636449885          0.000995969736
! CAM-B3LYP def2-SVP def2/J RIJCOSX Grid4 TightSCF
%maxcore 5000
%tddft
    Mode sTDDFT
    Ethresh 5.0
    maxcore 5000
end

%pal
  nprocs 6
  end
* xyz 0 1
   C       -4.08300        -2.30409         0.54716
   C       -2.98776        -2.46733         1.35416
   C       -2.35607        -3.70656         1.58691
   N       -1.80158        -4.68733         1.80712
   C       -2.36749        -1.43429         2.08930
   N       -1.82508        -0.65916         2.73982
   C       -4.81168        -3.36862        -0.13132
   C       -5.95075        -2.81036        -0.76140
   C       -6.84713        -3.56684        -1.47639
   C       -6.61373        -4.94274        -1.56760
   C       -5.47141        -5.49179        -0.93740
   C       -4.56129        -4.72565        -0.21976
   S       -5.37208        -7.20951        -1.17968
   C       -6.84632        -7.16725        -2.10981
   C       -7.38727        -5.93213        -2.23400
  Br       -7.53621        -8.75815        -2.82386
   C       -5.97566        -1.35179        -0.53853
   O       -6.74701        -0.56517        -1.04480
   C       -4.78489        -1.05881         0.30171
   C       -4.35093         0.19396         0.61123
   C       -5.15803         1.36817         0.54479
   C       -4.60284         2.60838         0.16952
   C       -5.42192         3.78131        -0.00814
   N       -4.83995         4.94460        -0.33772
   C       -3.54990         4.98375        -0.56274
   C       -2.75074         3.79735        -0.46055
   N       -3.28339         2.66151        -0.08892
   C       -1.36474         3.85816        -0.75395
   N       -0.25406         3.95611        -1.01633
   C       -2.96398         6.22482        -0.91497
   N       -2.48357         7.21730        -1.22624
   C       -6.82629         3.75813         0.18505
   C       -7.34682         2.55790         0.70746
   C       -6.52494         1.38071         0.88324
   N       -7.21251         0.36831         1.41018
   S       -8.73582         0.82000         1.60559
   N       -8.61237         2.32274         1.07079
   C       -7.65283         4.89609        -0.14952
   C       -7.29558         5.73995        -1.21554
   C       -8.05912         6.84308        -1.48985
   C       -9.21066         7.12790        -0.73314
   C       -9.59114         6.28172         0.30388
   C       -8.81782         5.17727         0.58385
   C       -9.79400         8.34666        -1.23244
   C       -8.99525         8.83053        -2.28964
   C       -7.86755         7.86864        -2.58504
   C       -6.48486         8.53439        -2.51360
   C       -6.17632         9.09237        -1.12917
   C       -8.08220         7.13837        -3.93273
   C       -8.08798         8.02190        -5.17294
   C       -9.29632        10.02930        -2.88362
   C      -10.44674        10.74095        -2.49290
   C      -11.24375        10.22807        -1.45469
   C      -10.91811         9.05267        -0.81647
   C      -10.76041        11.95184        -3.19752
   C      -11.92941        12.63253        -3.11970
   C      -12.25834        13.79425        -3.87228
   C      -13.55636        14.34808        -3.75652
   C      -13.99498        15.48778        -4.52836
   N      -15.23815        15.93775        -4.39027
   C      -16.06928        15.35691        -3.54560
   C      -15.62637        14.24431        -2.76934
   N      -14.41008        13.77260        -2.89202
   C      -16.50834        13.62879        -1.84463
   N      -17.23923        13.14781        -1.10521
   C      -17.39057        15.83841        -3.41880
   N      -18.47408        16.19011        -3.28270
   C      -13.13364        16.14970        -5.44720
   C      -11.81747        15.60811        -5.53023
   C      -11.38906        14.45917        -4.77318
   N      -10.12128        14.14605        -5.04092
   S       -9.53187        15.18299        -6.12240
   N      -10.85290        16.08148        -6.31213
   C      -13.45129        17.24239        -6.25990
   C      -14.61587        17.96368        -6.44753
   C      -14.68572        19.03820        -7.37117
   C      -15.90630        19.63633        -7.46064
   C      -16.86331        19.05714        -6.60276
   S      -16.16266        17.73843        -5.67716
   C      -18.19089        19.40680        -6.44209
   C      -18.89934        20.44427        -7.11243
   C      -20.19729        20.54933        -6.74956
   C      -20.60744        19.59411        -5.76029
   S      -19.23116        18.56504        -5.32881
   C      -21.82149        19.45097        -5.20944
   H       -7.70355        -3.11160        -1.94880
   H       -3.70227        -5.18886         0.23618
   H       -8.29379        -5.72536        -2.77291
   H       -3.31799         0.35677         0.89122
   H       -6.43588         5.50634        -1.82193
   H      -10.47320         6.49194         0.88961
   H       -9.08823         4.52352         1.39695
   H       -6.44136         9.34513        -3.24177
   H       -5.72281         7.79972        -2.78090
   H       -6.91824         9.83350        -0.83834
   H       -5.19621         9.56247        -1.12949
   H       -6.17126         8.29789        -0.38661
   H       -9.03472         6.60406        -3.87771
   H       -7.29109         6.39195        -4.03208
   H       -8.92559         8.71354        -5.15392
   H       -8.18798         7.39654        -6.05766
   H       -7.16296         8.58488        -5.26206
   H       -8.66886        10.44307        -3.65874
   H      -12.11602        10.77631        -1.13549
   H      -11.52616         8.68381        -0.00408
   H      -10.00359        12.31510        -3.87917
   H      -12.72660        12.28766        -2.47705
   H      -12.61607        17.57281        -6.86799
   H      -13.82432        19.33235        -7.94517
   H      -16.12839        20.46174        -8.11349
   H      -18.41738        21.07362        -7.83923
   H      -20.89239        21.26937        -7.14332
   H      -22.63605        20.09438        -5.49316
   H      -22.01654        18.69542        -4.47036
*
