# ORCA input file
# SCF done       -208.901622669223          0.000655568098
! CAM-B3LYP def2-SVP def2/J RIJCOSX Grid4 TightSCF
%maxcore 5000
%tddft
    Mode sTDDFT
    Ethresh 5.0
    maxcore 5000
end

%pal
  nprocs 6
  end
* xyz 0 1
   C      -15.07585         7.63109        -1.74556
   C      -16.15093         7.14454        -1.04880
   C      -17.34026         7.86632        -0.81916
   N      -18.32854         8.40834        -0.60302
   C      -16.20353         5.85712        -0.47601
   N      -16.28570         4.81762         0.00371
   C      -14.98098         8.95406        -2.35806
   C      -13.71884         9.07854        -2.99498
   C      -13.33409        10.21717        -3.66114
   C      -14.23549        11.28579        -3.70160
   C      -15.49205        11.15322        -3.06347
   C      -15.88151        10.00089        -2.39008
   S      -16.45027        12.59082        -3.23414
   C      -15.16924        13.34193        -4.14748
   C      -14.07810        12.55702        -4.31732
  Br      -15.39088        15.08915        -4.79092
   C      -12.96634         7.83288        -2.80487
   O      -11.83903         7.57295        -3.21411
   C      -13.83197         6.94745        -2.01933
   C      -13.43006         5.68774        -1.64817
   N      -12.22448         5.23074        -2.00477
   C      -11.68688         4.02146        -1.70640
   S      -12.54098         2.84870        -0.75612
   C      -11.18390         1.77802        -0.90478
   N      -11.28069         0.52349        -0.27848
   O      -10.33536        -0.23153        -0.37931
   O      -12.31527         0.29540         0.32069
   C      -10.14818         2.29018        -1.63429
   C      -10.41337         3.59126        -2.11277
   C       -9.54221         4.40115        -2.90894
   C       -8.29778         4.05833        -3.30904
   C       -7.46116         4.89743        -4.10894
   C       -6.16133         4.46776        -4.45977
   C       -5.26733         5.27554        -5.25434
   N       -4.07781         4.77042        -5.62817
   C       -3.71736         3.58670        -5.20926
   C       -4.57264         2.82007        -4.34550
   N       -5.75776         3.26236        -4.01792
   C       -4.13644         1.56402        -3.85400
   N       -3.74789         0.55500        -3.47626
   C       -2.46644         3.06143        -5.61994
   N       -1.45686         2.61411        -5.92414
   C       -5.62031         6.56637        -5.70268
   C       -6.92159         6.98841        -5.37159
   C       -7.82599         6.17269        -4.58992
   N       -8.99149         6.79421        -4.39072
   S       -8.95744         8.23493        -5.08276
   N       -7.47571         8.16745        -5.68433
   C       -4.70937         7.40566        -6.45867
   C       -5.21448         8.25147        -7.45900
   C       -4.35414         9.04756        -8.17221
   C       -2.96760         8.98550        -7.93609
   C       -2.46027         8.16477        -6.93806
   C       -3.33203         7.39184        -6.20066
   C       -2.29825         9.83773        -8.89119
   C       -3.26919        10.43941        -9.71063
   C       -4.66176        10.03627        -9.27322
   C       -5.46794         9.40566       -10.41762
   C       -4.73988         8.23046       -11.06032
   C       -5.35318        11.30206        -8.71322
   C       -6.71524        11.08237        -8.06718
   C       -2.89472        11.28110       -10.72811
   C       -1.53213        11.51964       -10.97283
   C       -0.57807        10.91775       -10.13921
   C       -0.94851        10.08742        -9.10283
   C       -1.17357        12.37343       -12.07797
   C        0.05515        12.52401       -12.61211
   C        0.34828        13.37149       -13.71605
   S       -0.85998        14.40556       -14.45071
   C        1.55665        13.52851       -14.37049
   C        2.85815        12.92379       -14.20517
   C        3.77671        13.35388       -15.06722
   S        3.09264        14.59102       -16.20942
   N        2.90917        14.09437       -17.63807
   O        3.72971        15.86574       -15.95177
   C        1.49301        14.45963       -15.43047
   C        0.27575        15.03673       -15.62660
   C       -0.07577        16.01119       -16.61865
   C       -1.28009        16.56146       -16.74499
   H      -12.36766        10.28343        -4.13595
   H      -16.84910         9.94941        -1.91988
   H      -13.19856        12.86197        -4.85412
   H      -14.05790         5.02791        -1.06332
   H      -11.66752         5.90209        -2.56320
   H       -9.24242         1.74004        -1.81123
   H       -9.91300         5.36785        -3.21644
   H       -7.85761         3.11118        -3.03470
   H       -6.26936         8.23370        -7.67671
   H       -1.40023         8.13090        -6.73787
   H       -2.94993         6.77488        -5.40360
   H       -5.66496        10.16922       -11.17298
   H       -6.42696         9.06040       -10.02987
   H       -3.79045         8.54948       -11.48449
   H       -5.34570         7.80395       -11.85649
   H       -4.54156         7.45388       -10.32470
   H       -5.45740        12.01421        -9.53509
   H       -4.68263        11.74853        -7.97417
   H       -7.42275        10.65425        -8.77238
   H       -7.11051        12.04015        -7.73495
   H       -6.63837        10.42890        -7.20273
   H       -3.63351        11.74751       -11.36399
   H        0.46950        11.11723       -10.30253
   H       -0.20021         9.63512        -8.46959
   H       -1.99057        12.92108       -12.53273
   H        0.89938        11.97286       -12.22277
   H        3.03842        12.18362       -13.44029
   H        4.80166        13.04823       -15.13842
   H        3.63791        14.35192       -18.27967
   H        0.74033        16.27294       -17.27900
   H       -2.09071        16.29492       -16.08578
   H       -1.49113        17.28813       -17.50863
*
