# ORCA input file
# SCF done       -208.435046380112          0.000647962936
! CAM-B3LYP def2-SVP def2/J RIJCOSX Grid4 TightSCF
%maxcore 5000
%tddft
    Mode sTDDFT
    Ethresh 5.0
    maxcore 5000
end

%pal
  nprocs 6
  end
* xyz 0 1
   C       -6.61327        -3.71660        -9.05583
   C       -7.15522        -4.76315        -8.35618
   C       -6.47749        -5.96995        -8.08667
   N       -5.97123        -6.96924        -7.83493
   C       -8.46375        -4.78404        -7.82928
   N       -9.51402        -4.87770        -7.37456
   C       -5.28869        -3.68924        -9.66362
   C       -5.14861        -2.48475       -10.39541
   C       -4.00065        -2.16161       -11.07677
   C       -2.94151        -3.07455       -11.04212
   C       -3.08973        -4.27522       -10.30797
   C       -4.24879        -4.59959        -9.61368
   S       -1.65766        -5.25668       -10.39273
   C       -0.89230        -4.05855       -11.40235
   C       -1.66575        -2.97807       -11.66249
  Br        0.85650        -4.34630       -12.01702
   C       -6.37970        -1.67880       -10.26560
   O       -6.54614        -0.55772       -10.69533
   C       -7.28057        -2.47355        -9.39060
   C       -8.42788        -1.98128        -8.85320
   C       -9.08964        -0.80839        -9.34834
   C       -9.56309         0.16870        -8.48507
   C      -10.02519         1.38651        -8.95709
   C      -10.11971         1.65911       -10.31812
   C       -9.83759         0.59670       -11.23117
   N      -10.02792         0.78237       -12.54786
   C       -9.69071        -0.18816       -13.35736
   C       -9.18680        -1.40841       -12.87677
   N       -9.00024        -1.62092       -11.60103
   C       -9.28435        -0.62119       -10.74947
   C      -10.39345         2.96668       -10.82895
   C       -9.89960         4.10927       -10.27144
   C      -10.02236         5.44254       -10.75859
   C       -9.20785         6.34406       -10.14790
   C       -8.38085         5.78006        -9.14720
   S       -8.76807         4.08635        -8.92449
   C       -7.31846         6.31928        -8.45660
   C       -6.80143         7.63625        -8.43017
   C       -5.65882         7.76083        -7.70551
   C       -5.17650         6.54760        -7.12861
   S       -6.31633         5.25939        -7.49188
   C       -3.97731         6.39702        -6.49484
   C       -3.35225         5.19590        -6.02822
   C       -4.03227         3.97179        -5.89572
   C       -3.34063         2.84059        -5.55085
   C       -1.95668         2.88668        -5.30070
   C       -1.27800         4.09821        -5.37527
   C       -1.97582         5.23150        -5.73031
   C       -1.50472         1.55273        -4.98441
   C       -2.60762         0.67872        -5.04595
   C       -3.87132         1.43783        -5.37428
   C       -4.86876         1.37395        -4.19925
   C       -4.28022         1.87571        -2.88631
   C       -4.55782         0.91495        -6.64959
   C       -3.64321         0.91430        -7.86801
   C       -2.44751        -0.66008        -4.79899
   C       -1.17929        -1.16343        -4.45413
   C       -0.09317        -0.27548        -4.38800
   C       -0.24404         1.06742        -4.65688
   C       -1.05890        -2.56449        -4.16634
   C        0.00467        -3.19228        -3.60695
   C       -0.00468        -4.57956        -3.33443
   C        0.89448        -5.29394        -2.59871
   C        1.96952        -4.88408        -1.72341
   C        2.04106        -3.72291        -0.99598
   C        3.10088        -3.41002        -0.12044
   N        3.94791        -3.09564         0.58797
   C        1.02119        -2.75013        -0.93700
   N        0.21090        -1.94808        -0.80085
   C        2.85779        -6.03231        -1.56039
   C        2.23674        -7.17209        -2.13051
   C        0.95185        -6.77155        -2.74047
   O        0.13603        -7.48181        -3.28259
   C        2.80873        -8.42010        -2.09394
   C        4.05612        -8.54882        -1.47372
   C        4.67384        -7.40266        -0.91968
   C        4.09287        -6.14073        -0.95061
   S        6.21321        -7.78603        -0.21059
   C        6.00658        -9.45879        -0.65759
   C        4.84706        -9.71871        -1.30634
  Br        7.34226       -10.70272        -0.22585
   H       -3.92287        -1.23395       -11.62201
   H       -4.31075        -5.52342        -9.06294
   H       -1.35214        -2.14638       -12.26663
   H       -8.86397        -2.45529        -7.98285
   H       -9.48441         0.00920        -7.41936
   H      -10.32815         2.14041        -8.24639
   H       -9.84691        -0.01568       -14.41367
   H       -8.95746        -2.22892       -13.54365
   H      -10.89226         3.02902       -11.78547
   H      -10.69175         5.67622       -11.56754
   H       -9.14270         7.38402       -10.41542
   H       -7.28354         8.44451        -8.95087
   H       -5.11758         8.68278        -7.58287
   H       -3.38049         7.29758        -6.40946
   H       -5.09712         3.91937        -6.04672
   H       -0.22046         4.15083        -5.16426
   H       -1.45414         6.17489        -5.80623
   H       -5.19559         0.33933        -4.07625
   H       -5.74402         1.97352        -4.45772
   H       -3.42117         1.27667        -2.59270
   H       -5.02610         1.81403        -2.09749
   H       -3.96178         2.91183        -2.97742
   H       -5.42959         1.53858        -6.85760
   H       -4.91286        -0.10155        -6.46431
   H       -3.27978         1.91867        -8.07329
   H       -4.18981         0.56199        -8.74019
   H       -2.78568         0.26316        -7.70902
   H       -3.28939        -1.33620        -4.84688
   H        0.88387        -0.65147        -4.12905
   H        0.60420         1.73327        -4.60629
   H       -1.94255        -3.15922        -4.36826
   H        0.89212        -2.63354        -3.35148
   H       -0.77603        -5.17323        -3.81503
   H        2.30940        -9.27156        -2.52886
   H        4.60411        -5.29609        -0.51938
   H        4.55891       -10.69405        -1.65345
*
