# ORCA input file
# SCF done       -203.549686208765          0.000306768432
! CAM-B3LYP def2-SVP def2/J RIJCOSX Grid4 TightSCF
%maxcore 5000
%tddft
    Mode sTDDFT
    Ethresh 5.0
    maxcore 5000
end

%pal
  nprocs 6
  end
* xyz 0 1
   C       -3.61902        -0.12341        11.01885
   C       -2.65407        -0.10404        11.98555
   F       -2.62169         0.88703        12.88905
   C       -1.69120        -1.12884        12.06055
   F       -0.78220        -1.10325        13.04708
   C       -1.68581        -2.14403        11.14683
   C       -2.66072        -2.18594        10.13102
   C       -3.65957        -1.17170        10.07804
   C       -4.68105        -1.22570         9.10334
   C       -4.69586        -2.25726         8.20269
   C       -3.67249        -3.24224         8.23654
   C       -2.67395        -3.21727         9.16734
   C       -3.90126        -4.22725         7.15983
   O       -3.19042        -5.19282         6.93592
   C       -5.15863        -3.82839         6.50782
   C       -5.60890        -2.58395         7.11199
   C       -6.64591        -1.79200         6.69708
   C       -7.46606        -2.02386         5.57121
   N       -8.15131        -2.11182         4.65405
   C       -7.00198        -0.57405         7.31610
   N       -7.33694         0.42825         7.76341
   C       -5.89849        -4.53042         5.58736
   C       -5.58966        -5.66740         4.82465
   S       -6.88847        -6.38506         3.89906
   C       -5.84042        -7.58558         3.24660
   C       -4.53879        -7.41105         3.71268
   C       -4.40077        -6.35203         4.59034
   C       -6.36863        -8.64179         2.45108
   C       -5.62330        -9.66983         1.99527
   N       -6.13612       -10.77139         1.36870
   C       -5.48175       -11.95345         1.18408
   S       -5.99461       -12.97235        -0.12834
   C       -4.69131       -14.06473         0.21520
   N       -4.58016       -15.21808        -0.57127
   O       -3.66177       -15.97814        -0.33222
   O       -5.42037       -15.36710        -1.44126
   C       -3.91494       -13.66083         1.26625
   C       -4.36812       -12.46808         1.86246
   C       -3.75728       -11.93862         3.06293
   C       -4.43378       -11.29408         4.03137
   C       -3.85475       -10.60370         5.13449
   C       -4.54395        -9.70721         5.94193
   C       -5.92445        -9.51109         5.79007
   N       -7.05201        -9.39962         5.61155
   C       -3.69789        -9.04988         6.87190
   C       -2.38602        -9.49419         6.75984
   S       -2.15277       -10.66991         5.52426
   S       -1.26883        -8.77032         7.87525
   C       -2.58051        -7.83923         8.50375
   C       -3.81204        -8.05708         7.88527
   C       -4.80539        -7.20236         8.41038
   C       -6.10564        -7.05756         7.90304
   N       -7.14541        -6.86148         7.46151
   C       -4.33692        -6.40944         9.45594
   S       -2.63119        -6.66352         9.74614
   C       -5.09760        -5.41187        10.11200
   C       -4.86506        -4.76921        11.28566
   C       -5.54262        -3.46718        11.54706
   O       -6.41343        -2.96603        10.87402
   C       -4.85407        -2.89853        12.71839
   C       -5.06245        -1.70003        13.33928
   C       -4.24082        -1.33675        14.42957
   C       -3.19959        -2.21848        14.84501
   C       -2.35286        -1.82968        15.90138
   C       -2.53724        -0.62638        16.52307
   C       -3.57723         0.23786        16.12258
   C       -4.41310        -0.10955        15.09834
   F       -3.74141         1.40162        16.75885
   F       -1.73531        -0.25978        17.52758
   C       -3.02924        -3.46804        14.20638
   C       -3.85549        -3.80994        13.16964
   C       -3.97535        -5.04140        12.39588
   C       -3.58173        -6.28046        12.82632
   C       -4.01772        -7.48175        12.22910
   N       -4.39298        -8.47599        11.79553
   C       -2.78882        -6.49430        13.97306
   N       -2.12741        -6.71475        14.88396
   H       -4.35372         0.66518        10.97843
   H       -0.93334        -2.91480        11.20842
   H       -5.43712        -0.45876         9.10662
   H       -1.90230        -3.97237         9.17212
   H       -6.90350        -4.16444         5.41475
   H       -3.71910        -8.03982         3.41404
   H       -3.47407        -6.07167         5.05564
   H       -7.43695        -8.63440         2.28874
   H       -4.55406        -9.68537         2.12684
   H       -7.08741       -10.71325         1.02673
   H       -3.07357       -14.23076         1.61753
   H       -2.69339       -12.10807         3.16855
   H       -5.50950       -11.19588         3.96791
   H       -5.96601        -5.06025         9.55919
   H       -5.84654        -1.03864        13.00352
   H       -1.55341        -2.47911        16.22134
   H       -5.19701         0.56715        14.79704
   H       -2.24172        -4.12115        14.54747
*
