# ORCA input file
# SCF done       -206.451121516339          0.000523926149
! CAM-B3LYP def2-SVP def2/J RIJCOSX Grid4 TightSCF
%maxcore 5000
%tddft
    Mode sTDDFT
    Ethresh 5.0
    maxcore 5000
end

%pal
  nprocs 6
  end
* xyz 0 1
   C       -8.40523         3.13691         4.94596
   C       -8.83560         2.40129         6.02314
   C       -9.67677         2.90398         7.03786
   N      -10.35473         3.24669         7.89898
   C       -8.50396         1.06186         6.30878
   N       -8.27567        -0.01492         6.64101
   C       -8.73187         4.54104         4.71179
   C       -8.08569         4.96562         3.52538
   C       -8.18828         6.24467         3.03714
   C       -8.96922         7.15532         3.75689
   C       -9.61344         6.72423         4.94056
   C       -9.50891         5.42866         5.43266
   S      -10.52748         8.00761         5.67354
   C      -10.03707         9.09067         4.39819
   C       -9.23147         8.52256         3.46951
  Br      -10.63517        10.86816         4.41260
   C       -7.33721         3.83276         2.95163
   O       -6.68897         3.85123         1.92131
   C       -7.54681         2.70083         3.86236
   C       -6.99872         1.44708         3.73564
   C       -6.16552         0.91247         2.74366
   S       -5.86648         1.63294         1.18170
   C       -5.09387         0.20232         0.64408
   C       -5.00962        -0.78229         1.58475
   C       -4.32717        -2.09214         1.37019
   C       -5.60344        -0.38434         2.81434
   C       -5.59692        -1.23856         3.95412
   C       -5.57829        -0.86289         5.26399
   C       -5.64688        -1.74821         6.36565
   C       -5.82648        -3.10203         6.27363
   C       -5.89872        -3.98321         7.35575
   C       -5.99752        -5.34759         7.18674
   C       -6.04850        -6.35859         8.17235
   C       -6.08626        -7.62891         7.67220
   C       -6.06986        -7.68437         6.26266
   S       -6.02475        -6.07818         5.58975
   C       -6.05418        -8.78745         5.42420
   C       -6.01025       -10.15937         5.74023
   C       -5.94066       -10.97047         4.64446
   C       -5.93168       -10.28128         3.40759
   S       -6.03474        -8.56017         3.68770
   C       -5.82215       -10.85721         2.16070
   C       -5.80354       -10.18898         0.93613
   C       -5.60491       -10.74778        -0.33929
   C       -5.39632       -12.16851        -0.53750
   O       -5.34233       -13.00459         0.35129
   C       -5.26278       -12.55047        -1.96010
   C       -5.22835       -11.59315        -3.00568
   C       -5.09932       -12.18562        -4.23965
   S       -5.02033       -13.89940        -4.15266
   C       -5.15366       -13.83388        -2.43875
   C       -5.14888       -15.11065        -1.65851
   F       -6.26201       -15.28517        -0.94015
   F       -5.06986       -16.17028        -2.48728
   F       -4.10770       -15.21211        -0.82847
   C       -5.04371       -11.51763        -5.57765
   F       -3.93280       -10.79882        -5.75883
   F       -5.06418       -12.43056        -6.56642
   F       -6.08803       -10.71029        -5.79665
   C       -5.30467       -10.13482        -2.77007
   O       -5.07889        -9.34588        -3.66645
   C       -5.62525        -9.78006        -1.38892
   C       -5.87984        -8.48879        -0.92753
   S       -6.04614        -8.46789         0.80423
   C       -6.07577        -7.23599        -1.58427
   S       -6.15927        -5.79756        -0.59658
   C       -6.46701        -4.81492        -1.98286
   C       -6.65572        -3.38761        -1.79434
   O       -6.78870        -2.55768        -2.66177
   O       -6.67295        -3.05721        -0.48636
   C       -6.50159        -5.55994        -3.15767
   C       -6.28383        -6.92909        -2.90840
   C       -6.74437        -4.98535        -4.46529
   C       -6.65512        -5.65658        -5.60967
   H       -7.68199         6.53374         2.12961
   H      -10.02123         5.15329         6.33892
   H       -8.83753         9.04446         2.61669
   H       -7.25231         0.73667         4.51207
   H       -4.70659         0.16179        -0.35685
   H       -3.89117        -2.13009         0.37562
   H       -5.03225        -2.91705         1.46763
   H       -3.53449        -2.23147         2.10347
   H       -5.54804        -2.29271         3.71860
   H       -5.46699         0.18550         5.50573
   H       -5.56680        -1.30747         7.34971
   H       -5.90971        -3.55549         5.29451
   H       -5.86419        -3.59359         8.36386
   H       -6.04956        -6.11969         9.22125
   H       -6.12235        -8.51798         8.27567
   H       -6.01871       -10.51219         6.75591
   H       -5.88859       -12.04378         4.68171
   H       -5.71996       -11.93316         2.11387
   H       -6.79546        -2.09982        -0.39161
   H       -6.27686        -7.66888        -3.68422
   H       -6.99668        -3.93493        -4.46395
   H       -6.38065        -6.69673        -5.65669
   H       -6.84414        -5.17054        -6.55114
*
