# ORCA input file
# SCF done       -192.492661966331          0.000741417964
! CAM-B3LYP def2-SVP def2/J RIJCOSX Grid4 TightSCF
%maxcore 5000
%tddft
    Mode sTDDFT
    Ethresh 5.0
    maxcore 5000
end

%pal
  nprocs 6
  end
* xyz 0 1
   C       -5.13265         6.30595         3.72667
   C       -6.36754         6.08299         3.16782
   C       -7.37641         7.06267         3.05845
   N       -8.25308         7.79781         2.96898
   C       -6.80391         4.85201         2.64096
   N       -7.20634         3.86780         2.20274
   C       -4.62999         7.58936         4.19068
   C       -3.27818         7.43382         4.58634
   C       -2.52444         8.47538         5.06813
   C       -3.13135         9.73245         5.16051
   C       -4.48392         9.87761         4.76554
   C       -5.24695         8.82381         4.28091
   S       -5.03552        11.51203         4.96350
   C       -3.46434        11.97490         5.55965
   C       -2.57106        10.95701         5.61232
  Br       -3.14991        13.75493         6.05394
   C       -2.86367         6.02850         4.40490
   O       -1.78500         5.55315         4.67351
   C       -4.07137         5.32946         3.88891
   C       -4.21994         3.98847         3.68450
   C       -3.25724         2.96268         3.65767
   O       -1.91809         3.17045         3.72628
   C       -1.30213         2.02374         3.58764
   C       -2.20595         0.99393         3.39869
   N       -1.84228        -0.33371         3.06935
   O       -0.70672        -0.67887         3.33593
   O       -2.67614        -1.03093         2.52535
   C       -3.50440         1.58853         3.45534
   N       -4.72774         1.00690         3.37014
   C       -5.00608        -0.32513         3.58944
   S       -6.16862        -1.12770         2.58137
   C       -5.98834        -2.59191         3.50755
   C       -5.01478        -2.46510         4.47777
   C       -4.49296        -1.15541         4.56047
   C       -3.59260        -0.73060         5.67885
   C       -3.69294        -1.72421         6.83564
   C       -3.42194        -3.13277         6.29451
   C       -3.27545        -4.12498         7.44636
   O       -4.08923        -4.95197         7.72773
   O       -2.13841        -4.00081         8.15011
   C       -4.57008        -3.56618         5.38299
   C       -6.76244        -3.76313         3.21282
   O       -6.20921        -4.96605         3.54117
   C       -6.99120        -5.94054         3.11809
   C       -8.09090        -5.41938         2.48609
   N       -9.12232        -6.15452         1.86363
   O       -9.93839        -5.52249         1.20832
   O       -9.11996        -7.35393         1.99193
   C       -7.97826        -3.98701         2.57298
   N       -8.96742        -3.17453         2.07190
   C       -9.43468        -1.96641         2.42163
   C       -9.14368        -1.10357         3.43601
   C       -8.38487        -1.18232         4.65914
   C       -8.25522        -2.26950         5.48459
   C       -7.55434        -2.20575         6.70352
   N       -6.95695        -2.16391         7.68316
   C       -8.88729        -3.50464         5.24671
   N       -9.42859        -4.50724         5.10618
   C       -8.00662         0.18639         5.01220
   C       -8.79463         1.08047         4.24702
   C       -9.59519         0.30561         3.27416
   O      -10.40678         0.71852         2.48159
   C       -8.72845         2.44276         4.40746
   C       -7.78371         2.94391         5.31051
   C       -6.93374         2.04509         5.99439
   C       -7.05490         0.66403         5.88975
   S       -5.75765         2.88712         6.96226
   C       -6.45263         4.41431         6.48424
   C       -7.50037         4.30078         5.63497
  Br       -5.71836         6.01256         7.14562
   H       -1.49760         8.32590         5.36246
   H       -6.27423         8.98313         3.99927
   H       -1.55841        11.06563         5.95515
   H       -5.21936         3.62640         3.48874
   H       -0.22895         2.00009         3.60350
   H       -5.49191         1.58174         3.03707
   H       -3.85925         0.27814         6.00754
   H       -2.54950        -0.69707         5.34912
   H       -4.69012        -1.70470         7.27956
   H       -2.97395        -1.44896         7.61010
   H       -2.48346        -3.12107         5.72531
   H       -1.55162        -3.31491         7.80485
   H       -5.40208        -3.90536         6.00777
   H       -4.25443        -4.42367         4.78703
   H       -6.69919        -6.95709         3.29625
   H       -9.55130        -3.69489         1.40816
   H      -10.15342        -1.57290         1.70773
   H       -9.36559         3.10115         3.83977
   H       -6.41953         0.01414         6.46600
   H       -8.06705         5.13513         5.26299
*
