# ORCA input file
# SCF done       -158.891323447530          0.000923987013
! CAM-B3LYP def2-SVP def2/J RIJCOSX Grid4 TightSCF
%maxcore 5000
%tddft
    Mode sTDDFT
    Ethresh 5.0
    maxcore 5000
end

%pal
  nprocs 6
  end
* xyz 0 1
   C       -9.03755        -0.63113        -1.32452
   C       -9.75783        -1.00115        -0.21402
   C      -11.09558        -1.44511        -0.25288
   N      -12.18469        -1.80749        -0.21290
   C       -9.29599        -0.98598         1.11746
   N       -9.00900        -0.99613         2.23121
   C       -9.54672        -0.63015        -2.69322
   C       -8.53863        -0.12617        -3.55109
   C       -8.70865        -0.00549        -4.90783
   C       -9.93593        -0.40481        -5.44855
   C      -10.93794        -0.90684        -4.58547
   C      -10.76507        -1.02664        -3.21159
   S      -12.37399        -1.34543        -5.46074
   C      -11.61796        -0.85549        -6.95342
   C      -10.35602        -0.38672        -6.80668
  Br      -12.56558        -1.00957        -8.56481
   C       -7.34564         0.21042        -2.74987
   O       -6.30765         0.68580        -3.17338
   C       -7.67230        -0.15008        -1.36722
   C       -6.82791        -0.09803        -0.28388
   C       -5.50591         0.33709        -0.16157
   S       -4.52538         0.97928        -1.45442
   C       -3.19857         1.12581        -0.39166
   C       -3.43300         0.69566         0.88562
   C       -2.40204         0.78807         1.96215
   C       -4.76694         0.24197         1.04488
   C       -5.35082        -0.23095         2.26434
   C       -4.71124        -0.90541         3.25087
   C       -5.38195        -1.36154         4.41270
   C       -4.78558        -2.14768         5.34756
   C       -5.41699        -2.64187         6.50836
   S       -4.56548        -3.73594         7.58041
   C       -5.90381        -3.88992         8.68757
   C       -6.96640        -3.10663         8.23173
   C       -6.68718        -2.42363         7.01691
   S       -8.06910        -1.49528         6.54231
   C       -8.87469        -2.09502         7.98375
   N       -8.21076        -2.88718         8.73273
   C       -5.80968        -4.71442         9.82117
   C       -6.80856        -4.82878        10.74515
   C       -6.72885        -5.66365        11.87246
   S       -8.00952        -5.68257        13.04697
   C       -7.23648        -6.86186        14.05217
   C       -6.01126        -7.24436        13.48888
   C       -5.72199        -6.56684        12.25927
   N       -4.58605        -6.82059        11.58518
   C       -3.78164        -7.70549        12.11571
   C       -4.06779        -8.36697        13.33251
   N       -5.16006        -8.14304        14.01088
   C       -7.81311        -7.31685        15.25953
   S       -9.31827        -6.65652        15.86939
   C       -9.33005        -7.64245        17.27339
   C       -8.22700        -8.46007        17.29371
   C       -7.37510        -8.27330        16.15625
   O       -6.31523        -9.09980        16.21817
   C       -6.47091        -9.80370        17.36741
   N       -5.48188       -10.76630        17.69355
   O       -5.64873       -11.37779        18.73259
   O       -4.55360       -10.91420        16.93129
   C       -7.59863        -9.47342        18.06895
   H       -7.91992         0.38221        -5.53329
   H      -11.55972        -1.41810        -2.59891
   H       -9.74481        -0.04294        -7.62108
   H       -7.24406        -0.47729         0.63895
   H       -2.27553         1.53437        -0.75785
   H       -1.66139         1.54018         1.70064
   H       -1.88348        -0.16266         2.08398
   H       -2.86132         1.05562         2.91123
   H       -6.41335        -0.06865         2.39444
   H       -3.67056        -1.17446         3.14955
   H       -6.41989        -1.08113         4.52910
   H       -3.75431        -2.44626         5.21125
   H       -9.88048        -1.78812         8.19380
   H       -4.89878        -5.27904         9.95673
   H       -7.71204        -4.24805        10.61846
   H       -2.87044        -7.91070        11.57083
   H       -3.38605        -9.09297        13.75191
   H      -10.12906        -7.56240        17.98039
   H       -7.91564        -9.90106        18.99727
*
