# ORCA input file
# SCF done       -201.862387460794          0.000936910824
! CAM-B3LYP def2-SVP def2/J RIJCOSX Grid4 TightSCF
%maxcore 5000
%tddft
    Mode sTDDFT
    Ethresh 5.0
    maxcore 5000
end

%pal
  nprocs 6
  end
* xyz 0 1
   C       -7.44162        -1.49932        -4.50837
   C       -6.90482        -2.05891        -5.64211
   C       -7.47452        -3.14630        -6.33504
   N       -7.88896        -4.02530        -6.94713
   C       -5.71980        -1.63244        -6.27461
   N       -4.76758        -1.34267        -6.84822
   C       -8.64490        -1.95518        -3.82437
   C       -8.85889        -1.14447        -2.68231
   C       -9.92043        -1.32794        -1.83084
   C      -10.81196        -2.36824        -2.11390
   C      -10.59150        -3.17286        -3.25731
   C       -9.52065        -2.98371        -4.12173
   S      -11.81592        -4.39431        -3.42467
   C      -12.59607        -3.81602        -1.97610
   C      -11.97309        -2.76354        -1.39499
  Br      -14.15979        -4.65474        -1.37063
   C       -7.80192        -0.11940        -2.59934
   O       -7.77070         0.82482        -1.84404
   C       -6.89079        -0.39770        -3.74669
   C       -5.82174         0.37803        -4.08339
   C       -5.18952         1.29110        -3.20405
   O       -4.49228         2.33808        -3.73414
   C       -5.03454         1.32267        -1.83090
   C       -5.29207         0.58642        -0.58350
   O       -5.82116        -0.47368        -0.38001
   N       -4.69918         1.38495         0.39055
   C       -4.03691         2.51725        -0.08198
   O       -3.45211         3.31523         0.60276
   C       -4.23899         2.45138        -1.53147
   C       -3.93016         3.06297        -2.73442
   C       -3.19278         4.24519        -3.01399
   C       -2.98025         4.67387        -4.27769
   C       -2.35265         5.91201        -4.64936
   C       -2.38199         6.98311        -3.79456
   S       -1.81750         8.44961        -4.46356
   C       -1.48596         7.63669        -5.96479
   C       -1.77831         6.26451        -5.93412
   C       -1.46497         5.47490        -7.07223
   C       -1.56901         3.97245        -6.98830
   C       -0.59348         3.40081        -5.95722
   C       -0.99980         6.08483        -8.23156
   C       -0.72475         5.30433        -9.49022
   C        0.70095         4.74944        -9.51178
   C       -0.77332         7.48121        -8.26820
   C       -0.36739         8.33414        -9.35876
   C       -0.34021         9.64465        -8.99480
   S       -0.73412         9.94046        -7.34504
   C       -1.01012         8.24303        -7.11465
   C       -0.01001         7.95760       -10.72072
   C       -0.65034         8.45768       -11.79806
   C       -0.30186         8.16663       -13.13980
   C       -1.08146         8.48641       -14.21523
   C       -0.79618         8.24711       -15.58617
   C       -1.78844         8.61981       -16.43708
   C       -2.92724         9.16196       -15.79492
   S       -2.67261         9.22798       -14.06448
   C       -4.12189         9.55175       -16.36351
   C       -4.47032         9.54292       -17.73426
   C       -5.75085         9.92887       -17.96303
   C       -6.49960        10.25974       -16.79405
   S       -5.47065        10.09800       -15.38341
   C       -7.82422        10.59550       -16.86046
   C       -8.79095        10.90478       -15.86301
   C      -10.13341        11.08632       -16.25586
   O      -10.35789        10.97485       -17.59354
   C      -11.61177        10.58550       -18.11407
   C      -11.15388        11.40414       -15.30782
   O      -12.40367        11.61590       -15.81521
   C      -13.45141        11.92298       -14.92710
   C      -10.87258        11.50598       -13.96454
   C       -9.55300        11.32526       -13.53622
   C       -8.50632        11.03829       -14.47813
   N       -7.32906        10.92817       -13.88033
   S       -7.51204        11.15210       -12.29161
   N       -9.10253        11.40744       -12.28550
   H      -10.05365        -0.69300        -0.96937
   H       -9.39978        -3.62073        -4.98183
   H      -12.31683        -2.28363        -0.49694
   H       -5.39888         0.32950        -5.07800
   H       -4.72427         1.14500         1.37156
   H       -2.81245         4.76508        -2.14847
   H       -3.37266         4.06158        -5.07418
   H       -2.78160         6.99278        -2.79954
   H       -1.33253         3.52119        -7.94759
   H       -2.58894         3.67113        -6.74944
   H        0.42577         3.68596        -6.20971
   H       -0.65688         2.31506        -5.94934
   H       -0.80842         3.76380        -4.95591
   H       -0.86548         5.96925       -10.34371
   H       -1.43987         4.48970        -9.60751
   H        1.42290         5.54918        -9.36126
   H        0.90469         4.26973       -10.46667
   H        0.84517         4.01715        -8.72155
   H       -0.06518        10.47274        -9.61885
   H        0.83408         7.29392       -10.85343
   H       -1.51953         9.08626       -11.64834
   H        0.62702         7.64365       -13.32595
   H        0.13584         7.80473       -15.89151
   H       -1.74290         8.50813       -17.50572
   H       -3.77693         9.25380       -18.50400
   H       -6.20301         9.98050       -18.93823
   H       -8.22985        10.60058       -17.86408
   H      -11.40226        10.24781       -19.12991
   H      -12.31410        11.42011       -18.14736
   H      -12.04936         9.76464       -17.54285
   H      -13.61665        11.11614       -14.20670
   H      -14.33592        12.03591       -15.55226
   H      -13.26304        12.85840       -14.39200
   H      -11.62354        11.74063       -13.23128
*
