# ORCA input file
# SCF done       -176.330487440022          0.000955548910
! CAM-B3LYP def2-SVP def2/J RIJCOSX Grid4 TightSCF
%maxcore 5000
%tddft
    Mode sTDDFT
    Ethresh 5.0
    maxcore 5000
end

%pal
  nprocs 6
  end
* xyz 0 1
   O       11.25671        -6.30185        -0.84771
   N       12.03664        -6.29080         0.23332
   C       11.63662        -5.30975         1.00624
   C       12.24489        -5.01016         2.24398
   N       12.72584        -4.76685         3.25293
   C       10.52956        -4.62084         0.40973
   C       10.34399        -5.31831        -0.77269
   C        9.45229        -5.16188        -1.85052
   N        8.78378        -5.04988        -2.77273
   C        9.87008        -3.46498         1.02217
   O       10.24979        -2.97419         2.06284
   O        8.83513        -3.00879         0.30665
   C        8.15004        -1.91681         0.74589
   S        8.66118        -1.00989         2.12154
   C        7.38472         0.11208         1.85642
   C        6.61757        -0.17772         0.77739
   C        5.44013         0.62990         0.34477
   C        7.04456        -1.37148         0.10808
   C        6.40090        -1.88031        -1.06569
   C        6.52835        -3.14330        -1.53438
   C        5.98991        -3.65625        -2.74441
   C        5.21452        -3.01789        -3.66172
   C        4.85964        -3.65267        -4.87691
   O        5.36277        -4.87964        -5.16225
   C        4.07669        -3.25349        -5.95164
   C        3.22959        -2.17554        -6.46454
   O        2.91607        -1.11451        -5.99028
   N        2.82069        -2.64766        -7.71297
   C        3.31070        -3.90263        -8.06674
   O        3.07484        -4.47501        -9.09911
   C        4.12737        -4.28978        -6.91230
   C        4.94245        -5.28649        -6.39474
   C        5.39949        -6.52188        -6.89668
   C        6.24104        -7.29483        -6.14169
   C        6.83333        -8.50691        -6.50172
   C        7.67471        -9.17626        -5.63523
   C        8.40737       -10.36502        -5.84667
   C        9.17234       -10.74826        -4.78000
   C        9.06402        -9.88634        -3.66995
   S        7.98167        -8.57046        -4.01649
   C        9.67474        -9.96062        -2.42307
   C       10.63520       -10.86141        -1.93296
   C       11.03017       -10.59733        -0.64744
   C       10.38470        -9.49084        -0.06265
   S        9.26697        -8.77960        -1.20402
   C       10.56428        -8.95304         1.20456
   C        9.80186        -7.87775         1.63335
   C        9.95754        -7.15785         2.80395
   C        9.20502        -5.99914         3.18592
   C        8.17972        -5.40138         2.47710
   C        7.42468        -4.30345         2.92942
   N        6.75078        -3.41240         3.19972
   C        7.75392        -5.75866         1.18817
   N        7.39626        -5.92487         0.10555
   C        9.74224        -5.51475         4.45037
   C       10.78132        -6.38471         4.86495
   C       10.94708        -7.45611         3.85946
   O       11.73406        -8.37943         3.89557
   C       11.51504        -6.16519         6.00246
   C       11.21358        -5.02859         6.76254
   C       10.18427        -4.16064         6.33083
   C        9.43703        -4.38443         5.18098
   S        9.99598        -2.80799         7.40365
   C       11.28201        -3.42108         8.40738
   C       11.82771        -4.57789         7.96255
  Br       11.77957        -2.48141         9.95089
   H        7.26864         0.93508         2.53331
   H        5.28948         1.46376         1.02449
   H        4.54139         0.01555         0.33921
   H        5.59224         1.02340        -0.65956
   H        5.76664        -1.17687        -1.58649
   H        7.10492        -3.85333        -0.96203
   H        6.27210        -4.67700        -2.96428
   H        4.84349        -2.01390        -3.52771
   H        2.21337        -2.11479        -8.31907
   H        5.07315        -6.80830        -7.88437
   H        6.49296        -6.91515        -5.15870
   H        6.65172        -8.92953        -7.48016
   H        8.35630       -10.90003        -6.77864
   H        9.79663       -11.62360        -4.76409
   H       11.01999       -11.66898        -2.52985
   H       11.76157       -11.17027        -0.10606
   H       11.32286        -9.36586         1.85205
   H        9.01770        -7.55570         0.95634
   H       12.30784        -6.83717         6.29010
   H        8.67274        -3.68631         4.88304
   H       12.63156        -5.09207         8.45696
*
