# ORCA input file
# SCF done       -190.100203810297          0.000953719356
! CAM-B3LYP def2-SVP def2/J RIJCOSX Grid4 TightSCF
%maxcore 5000
%tddft
    Mode sTDDFT
    Ethresh 5.0
    maxcore 5000
end

%pal
  nprocs 6
  end
* xyz 0 1
   C        9.03325       -20.70937         8.38252
   C        9.54058       -20.03354         7.34276
   C       10.79665       -20.24747         6.68249
   C       11.03516       -19.40846         5.65061
   C        9.99671       -18.46534         5.40971
   S        8.69432       -18.68908         6.55929
   C        9.95836       -17.49825         4.43338
   C       10.92561       -17.21778         3.43850
   C       10.58292       -16.19726         2.60977
   C        9.32904       -15.59309         2.89617
   S        8.60047       -16.39710         4.27724
   C        8.75611       -14.61713         2.11801
   C        7.53488       -13.93512         2.25144
   S        6.79685       -13.35403         0.78406
   C        5.35560       -12.81525         1.58423
   C        5.48934       -12.97851         2.97196
   C        6.72187       -13.60289         3.35277
   C        7.05468       -13.70647         4.71482
   C        6.17365       -13.25875         5.65677
   F        6.48656       -13.34583         6.96076
   C        4.95361       -12.65753         5.28359
   F        4.13000       -12.19398         6.24095
   C        4.61669       -12.50183         3.97075
   C        4.28588       -12.32508         0.79165
   C        2.97851       -12.29725         1.14356
   C        1.95898       -11.76805         0.29507
   C        0.63879       -11.72739         0.55418
   C       -0.02413       -12.28462         1.77141
   C       -0.31214       -11.13395        -0.46075
   N       -1.03130       -12.15969        -1.18859
   C       -2.10267       -12.79059        -0.65182
   C       -2.61558       -13.96386        -1.07964
   C       -3.75237       -14.58196        -0.48723
   C       -4.38392       -15.72376        -0.89329
   C       -5.45719       -16.12156        -0.06055
   C       -6.28886       -17.25218        -0.19121
   C       -6.08065       -18.21951        -1.25134
   C       -4.90286       -18.75363        -1.68518
   C       -5.07900       -19.66994        -2.74568
   C       -6.37405       -19.84380        -3.13434
   S       -7.41949       -18.85744        -2.16695
   C       -6.91863       -20.71738        -4.20468
  Cl       -3.75215       -20.49437        -3.47505
   C       -7.29818       -17.39732         0.75312
   C       -7.47961       -16.50122         1.83371
   C       -6.63083       -15.38464         1.98683
   C       -5.65428       -15.21873         1.01479
   S       -4.48421       -13.92856         0.97011
   C       -6.76499       -14.47479         3.10694
   C       -6.63322       -13.11533         3.11342
   C       -6.83680       -12.55552         4.39333
   C       -7.10929       -13.46315         5.37542
   S       -7.10917       -15.05916         4.71463
   C       -7.40790       -13.24151         6.81172
  Cl       -6.75698       -10.85738         4.67370
   C       -8.56391       -16.87977         2.65493
   C       -9.17241       -18.03614         2.25880
   S       -8.45054       -18.70799         0.81536
   C      -10.25321       -18.64402         2.95737
   S      -11.13033       -20.05951         2.43877
   C      -12.15625       -20.08050         3.81694
   C      -11.85206       -19.04130         4.66237
   C      -10.77809       -18.23852         4.16276
   O      -10.49072       -17.23035         5.01617
   C      -11.36133       -17.38207         6.05052
   N      -11.27291       -16.44853         7.10900
   O      -12.05026       -16.59568         8.03326
   O      -10.43590       -15.57318         7.02639
   C      -12.21020       -18.44622         5.90488
   H        9.57863       -21.52261         8.82796
   H        8.07457       -20.46508         8.80186
   H       11.46485       -21.02254         7.01375
   H       11.92493       -19.42675         5.04650
   H       11.83864       -17.77997         3.35997
   H       11.19059       -15.84889         1.79300
   H        9.28774       -14.40735         1.19615
   H        8.00417       -14.10138         5.03025
   H        3.71473       -11.97073         3.71970
   H        4.56101       -12.00536        -0.20665
   H        2.67991       -12.71597         2.09036
   H        2.30998       -11.33731        -0.63580
   H        0.68764       -12.67082         2.49222
   H       -0.69751       -13.09634         1.49088
   H       -0.62526       -11.51516         2.25608
   H        0.23271       -10.52378        -1.18561
   H       -1.05134       -10.50359         0.04183
   H       -0.47695       -12.69866        -1.83927
   H       -2.59680       -12.25469         0.14810
   H       -2.15666       -14.49428        -1.90266
   H       -4.09797       -16.25438        -1.78261
   H       -3.94724       -18.53972        -1.24354
   H       -6.10760       -21.26123        -4.68270
   H       -7.43890       -20.12487        -4.95666
   H       -7.62925       -21.43171        -3.79032
   H       -6.44115       -12.52256         2.23857
   H       -6.60377       -13.62980         7.43729
   H       -8.32694       -13.75911         7.08623
   H       -7.52102       -12.17779         7.00632
   H       -8.90060       -16.32284         3.50741
   H      -12.90095       -20.84202         3.91794
   H      -12.97008       -18.74497         6.59680
*
