# ORCA input file
# SCF done       -155.790102456299          0.000614176301
! CAM-B3LYP def2-SVP def2/J RIJCOSX Grid4 TightSCF
%maxcore 5000
%tddft
    Mode sTDDFT
    Ethresh 5.0
    maxcore 5000
end

%pal
  nprocs 6
  end
* xyz 0 1
   C       -5.58763       -12.59900         2.43697
   C       -5.96332       -11.44431         1.74642
   C       -5.94414       -11.45454         0.35010
   C       -5.56482       -12.60319        -0.34414
   C       -5.20129       -13.73113         0.35863
   C       -5.21012       -13.73087         1.75119
   O       -6.27971       -10.36242        -0.38373
   C       -6.59504        -9.21470         0.23765
   C       -6.84068        -8.10651        -0.73710
   C       -6.64554        -9.08466         1.58968
   C       -6.36795       -10.23208         2.47504
   O       -6.48593       -10.18804         3.68421
   C       -6.95133        -7.82643         2.23686
   C       -8.06136        -6.92047         1.95187
   N       -8.07596        -5.84402         2.68897
   C       -7.00159        -5.95503         3.51596
   C       -6.30687        -7.23831         3.29339
   C       -5.09788        -7.28926         4.08524
   S       -3.91178        -8.42740         4.06771
   C       -5.08211        -6.03071         4.77561
   C       -6.24396        -5.22151         4.39391
   N       -6.13857        -3.95977         4.90547
   C       -4.97837        -3.91075         5.48793
   C       -4.22703        -5.16988         5.44423
   C       -2.93748        -5.41339         5.96071
   C       -1.90564        -4.51197         5.92066
   C       -0.57452        -4.71067         6.36857
   C        0.30478        -3.76065         5.94456
   C       -0.28098        -2.77305         5.11965
   S       -2.01029        -3.00537         5.02076
   C        0.35073        -1.86381         4.28829
   C        1.73663        -1.68949         4.06910
   C        2.02745        -0.96079         2.95574
   C        0.88663        -0.50776         2.24393
   S       -0.57320        -0.95037         3.11944
   C        0.84854        -0.00878         0.96849
   C       -0.34109         0.33680         0.29135
   C       -1.53031         0.98614         0.85877
   N       -2.50439         1.14811         0.01676
   C       -2.08168         0.57830        -1.15223
   C       -0.69540         0.11962        -1.02783
   C       -0.29315        -0.58888        -2.20919
   S        1.20626        -1.20061        -2.52033
   C       -1.48448        -0.62628        -3.02592
   C       -2.55101         0.17226        -2.37284
   N       -3.68231         0.17262        -3.12620
   C       -3.41171        -0.56599        -4.16295
   C       -2.06749        -1.15982        -4.14673
   C       -1.62742        -2.11444        -5.13995
   C       -0.99581        -3.27821        -4.80613
   O       -0.60404        -4.19082        -5.70846
   C       -0.82422        -3.97816        -7.02899
   C       -0.38141        -4.95280        -7.92333
   C       -0.60732        -4.78744        -9.27213
   C       -1.27319        -3.65940        -9.74545
   C       -1.71070        -2.69803        -8.86360
   C       -1.49098        -2.84221        -7.49132
   C       -1.96827        -1.82355        -6.54321
   O       -2.58145        -0.83200        -6.89808
   C       -0.71334        -3.72496        -3.41676
   H       -5.60487       -12.56504         3.51558
   H       -5.56001       -12.58166        -1.42259
   H       -4.90461       -14.61976        -0.17758
   H       -4.92006       -14.61993         2.28946
   H       -6.22610        -8.26314        -1.62055
   H       -6.61290        -7.14038        -0.29744
   H       -7.88346        -8.10973        -1.05264
   H       -8.83830        -7.09785         1.22939
   H       -4.66258        -3.02002         6.00285
   H       -2.71925        -6.41515         6.30739
   H       -0.30885        -5.56578         6.96437
   H        1.35738        -3.76775         6.16369
   H        2.47454        -2.13756         4.71004
   H        3.02249        -0.76005         2.60017
   H        1.77060         0.00485         0.40198
   H       -1.60379         1.36929         1.86168
   H       -4.13710        -0.71753        -4.94104
   H        0.12957        -5.82024        -7.53632
   H       -0.26546        -5.54061        -9.96569
   H       -1.44381        -3.54212       -10.80443
   H       -2.22991        -1.81264        -9.19768
   H       -1.49451        -3.40424        -2.73213
   H        0.22952        -3.28537        -3.07435
   H       -0.61351        -4.80709        -3.39545
*
