# ORCA input file
# SCF done       -182.476974888503          0.000839667270
! CAM-B3LYP def2-SVP def2/J RIJCOSX Grid4 TightSCF
%maxcore 5000
%tddft
    Mode sTDDFT
    Ethresh 5.0
    maxcore 5000
end

%pal
  nprocs 6
  end
* xyz 0 1
   C       -4.94558        -1.25500        -2.28813
   C       -3.62281        -1.60032        -2.41710
   C       -3.15844        -2.66543        -3.21620
   N       -2.71760        -3.51930        -3.84445
   C       -2.54396        -0.93631        -1.79945
   N       -1.62200        -0.42997        -1.33601
   C       -6.05702        -1.90256        -2.97851
   C       -7.25222        -1.20889        -2.66513
   C       -8.47796        -1.57192        -3.16633
   C       -8.52890        -2.68001        -4.01890
   C       -7.33182        -3.36989        -4.32549
   C       -6.09144        -2.99888        -3.81941
   S       -7.62229        -4.70917        -5.39322
   C       -9.32420        -4.32998        -5.41251
   C       -9.65986        -3.25531        -4.65974
  Br      -10.49584        -5.38780        -6.42479
   C       -6.93787        -0.09775        -1.75127
   O       -7.73108         0.70582        -1.29358
   C       -5.49596        -0.17174        -1.49804
   C       -4.79253         0.61060        -0.61532
   C       -5.21107         1.68600         0.17756
   S       -6.81394         2.37507         0.20690
   C       -6.33161         3.54287         1.39909
   C       -4.99523         3.38261         1.77594
   C       -4.36298         2.36430         1.07049
   C       -2.91336         2.03459         1.25548
   C       -2.17566         3.19580         1.93600
   C       -0.83260         2.78691         2.28541
   N        0.21478         2.44050         2.57978
   C       -2.94565         3.62000         3.20264
   C       -2.19596         4.60510         3.95011
   N       -1.62372         5.41108         4.52212
   C       -4.30726         4.21319         2.81372
   C       -7.29515         4.47904         1.84396
   C       -8.58725         4.58982         1.34901
   C       -9.31804         5.58762         1.98297
   C       -8.58356         6.25320         2.98468
   S       -6.99065         5.66004         3.12048
   C       -9.41864         7.21566         3.59579
   C      -10.68025         7.17315         2.97499
   C      -10.65564         6.15645         1.93547
   C      -11.67301         5.81215         1.09482
   C      -11.53729         4.80754         0.11324
   N      -11.44336         3.99588        -0.69116
   C      -12.93627         6.43936         1.14234
   N      -13.96876         6.93717         1.16947
   C      -11.58986         8.07135         3.52820
   C      -11.04289         8.79253         4.57418
   S       -9.36124         8.35990         4.86370
   C      -11.69540         9.75620         5.40238
   C      -11.07318        10.34348         6.49900
   C      -11.70951        11.23490         7.35163
   C      -13.03442        11.62995         7.18362
   C      -13.68745        11.09413         6.04252
   C      -13.03696        10.15808         5.16498
   N      -13.84029         9.77278         4.17556
   S      -15.26169        10.50501         4.32622
   N      -14.93519        11.34784         5.65612
   C      -13.72251        12.50874         8.09635
   C      -13.27685        12.73613         9.37588
   C      -13.89109        13.56955        10.31108
   C      -15.05533        14.38760         9.93875
   C      -15.67065        14.30270         8.73895
   S      -15.19581        13.24314         7.47800
   C      -15.33192        15.18880        11.07625
   C      -14.41569        14.88831        12.09056
   C      -14.64963        15.64856        13.26035
   C      -15.70516        16.48724        13.10718
   S      -16.46489        16.39046        11.54999
   C      -13.52781        13.86276        11.63405
   C      -12.49095        13.29488        12.45384
   C      -11.98036        12.06787        12.35592
   H       -9.36802        -1.01941        -2.90926
   H       -5.21011        -3.55922        -4.08273
   H      -10.66267        -2.88229        -4.55877
   H       -3.74895         0.35831        -0.48911
   H       -2.43539         1.82379         0.29598
   H       -2.81526         1.13235         1.87017
   H       -2.10979         4.05025         1.25109
   H       -3.08815         2.73913         3.84098
   H       -4.17060         5.23345         2.43677
   H       -4.92966         4.28275         3.70995
   H       -8.95581         3.95569         0.56259
   H      -12.60765         8.21041         3.21358
   H      -10.04375        10.08580         6.70382
   H      -11.13440        11.64085         8.16875
   H      -12.37591        12.22940         9.68701
   H      -16.54131        14.89241         8.49684
   H      -14.07231        15.58054        14.16463
   H      -16.10671        17.17686        13.82384
   H      -12.14308        13.94396        13.24907
   H      -12.33434        11.34863        11.63788
   H      -11.20666        11.73163        13.02465
*
