# ORCA input file
# SCF done       -196.159634129477          0.000385536024
! CAM-B3LYP def2-SVP def2/J RIJCOSX Grid4 TightSCF
%maxcore 5000
%tddft
    Mode sTDDFT
    Ethresh 5.0
    maxcore 5000
end

%pal
  nprocs 6
  end
* xyz 0 1
   C      -10.81925         0.29948        -0.19875
   C      -12.15486         0.43881        -0.45516
   F      -12.67106         1.65236        -0.70283
   C      -13.00388        -0.68381        -0.47193
   F      -14.30997        -0.51960        -0.73786
   C      -12.50638        -1.93332        -0.23143
   C      -11.13373        -2.10956         0.02317
   C      -10.27233        -0.97645         0.04017
   C       -8.88595        -1.13918         0.27288
   C       -8.37481        -2.39927         0.43488
   C       -9.23895        -3.52665         0.37974
   C      -10.58652        -3.39625         0.21753
   C       -8.43525        -4.76453         0.44553
   O       -8.86427        -5.90178         0.46608
   C       -7.02833        -4.32275         0.54227
   C       -7.00462        -2.87914         0.62095
   C       -5.90049        -2.07553         0.75875
   C       -5.95426        -0.66782         0.81463
   N       -5.93379         0.47869         0.87567
   C       -4.56942        -2.52779         0.86624
   N       -3.45908        -2.81334         0.93788
   C       -5.94141        -5.16302         0.66976
   C       -5.84304        -6.49617         0.24151
   S       -4.67879        -7.54761         1.00893
   C       -5.14256        -8.84393        -0.00817
   C       -6.10605        -8.52141        -0.91761
   C       -6.62082        -9.48899        -1.92910
   C       -6.51296        -7.16236        -0.80371
   C       -7.39562        -6.42772        -1.64651
   C       -8.47932        -6.85477        -2.33773
   C       -9.46544        -5.97500        -2.87704
   C       -9.43281        -4.62253        -2.78355
   C      -10.47942        -3.69762        -3.05485
   S       -9.99039        -2.04120        -3.32436
   C      -11.61092        -1.56774        -3.62750
   C      -12.49160        -2.59697        -3.52633
   C      -13.96311        -2.43968        -3.72035
   C      -11.85945        -3.82945        -3.16644
   C      -12.65001        -4.99711        -2.86409
   C      -12.39149        -5.89052        -1.88716
   C      -13.22755        -7.00734        -1.60589
   C      -12.98152        -7.85036        -0.57616
   C      -13.64625        -9.06700        -0.24386
   S      -13.18373        -9.82283         1.25880
   C      -14.10435       -11.22586         0.89579
   C      -14.70960       -11.15863        -0.31843
   C      -15.56430       -12.23390        -0.89938
   C      -14.47866        -9.90994        -0.97304
   C      -15.01539        -9.66052        -2.28814
   C      -15.80004        -8.62353        -2.65629
   C      -16.17126        -8.40740        -4.01406
   C      -15.35058        -8.75546        -5.04334
   C      -13.98096        -9.06137        -4.86822
   C      -13.12945        -9.64604        -5.76484
   C      -11.67061        -9.42077        -5.67527
   O      -11.06444        -8.90888        -4.75738
   C      -11.12578        -9.89920        -6.96536
   C       -9.84496        -9.84386        -7.43235
   C       -9.55890       -10.35240        -8.71992
   C      -10.61196       -10.90681        -9.50353
   C      -10.32023       -11.40904       -10.78727
   C       -9.04210       -11.36662       -11.26965
   C       -8.00114       -10.81971       -10.49352
   C       -8.25277       -10.32245        -9.24546
   F       -6.75687       -10.79075       -10.99064
   F       -8.76647       -11.84676       -12.48949
   C      -11.92942       -10.95562        -8.99203
   C      -12.18066       -10.46290        -7.74031
   C      -13.40706       -10.41908        -6.94861
   C      -14.54662       -11.14935        -7.17952
   C      -15.54056       -11.32375        -6.19595
   N      -16.31969       -11.54099        -5.38069
   C      -14.78010       -11.89688        -8.34969
   N      -15.02058       -12.49919        -9.29711
   H      -10.18351         1.17097        -0.19139
   H      -13.16437        -2.78800        -0.24983
   H       -8.26275        -0.26019         0.29732
   H      -11.22953        -4.26174         0.21091
   H       -5.05467        -4.77046         1.15361
   H       -4.66770        -9.79853         0.11548
   H       -5.97371       -10.36156        -1.97760
   H       -6.66535        -9.02227        -2.91116
   H       -7.62342        -9.82017        -1.66105
   H       -7.20143        -5.36272        -1.63175
   H       -8.72734        -7.90354        -2.37564
   H      -10.33771        -6.45369        -3.29795
   H       -8.51414        -4.13735        -2.47676
   H      -11.82319        -0.54433        -3.86728
   H      -14.20691        -1.39990        -3.92081
   H      -14.50420        -2.75675        -2.83021
   H      -14.30446        -3.04448        -4.56023
   H      -13.57208        -5.09305        -3.42534
   H      -11.50408        -5.78347        -1.27947
   H      -14.06627        -7.16436        -2.26595
   H      -12.15530        -7.60469         0.08155
   H      -14.14289       -12.02937         1.60464
   H      -15.63851       -13.07310        -0.21313
   H      -15.14401       -12.58737        -1.84059
   H      -16.56449       -11.85581        -1.10594
   H      -14.84739       -10.44908        -3.01448
   H      -16.20285        -7.95741        -1.90374
   H      -17.13331        -7.96025        -4.21975
   H      -15.72746        -8.70948        -6.05692
   H      -13.49872        -8.67061        -3.97560
   H       -9.05774        -9.41876        -6.82832
   H      -11.10532       -11.83351       -11.39335
   H       -7.44447        -9.90645        -8.66463
   H      -12.70985       -11.37670        -9.60592
*
