# ORCA input file
# SCF done       -218.450504579444          0.000476520691
! CAM-B3LYP def2-SVP def2/J RIJCOSX Grid4 TightSCF
%maxcore 5000
%tddft
    Mode sTDDFT
    Ethresh 5.0
    maxcore 5000
end

%pal
  nprocs 6
  end
* xyz 0 1
   C        6.67236        -3.04131         4.65140
   C        7.40773        -3.22968         5.78800
   F        8.35543        -2.34602         6.13160
   C        7.18113        -4.35028         6.61090
   F        7.91731        -4.51015         7.72026
   C        6.22181        -5.26811         6.28580
   C        5.44799        -5.10189         5.12126
   C        5.67552        -3.96885         4.28835
   C        4.91025        -3.78004         3.11383
   C        3.94797        -4.69651         2.78260
   C        3.73107        -5.82604         3.61973
   C        4.45101        -6.03573         4.75927
   C        2.65706        -6.65466         3.04031
   O        2.21813        -7.69052         3.50835
   C        2.24381        -5.98261         1.80616
   C        3.01939        -4.77002         1.65484
   C        2.91905        -3.82962         0.65917
   C        2.02304        -3.86772        -0.42810
   N        1.32645        -3.81741        -1.34102
   C        3.71006        -2.66423         0.59140
   N        4.31800        -1.69692         0.47440
   C        1.29054        -6.43939         0.92547
   C        0.48107        -7.57902         0.96375
   C       -0.42794        -7.85781        -0.06772
   C       -1.13334        -9.01879         0.16330
   C       -0.77828        -9.65292         1.38685
   S        0.44492        -8.79817         2.24052
   C       -1.57189       -10.79418         1.47765
   C       -2.38704       -10.83683         0.32069
   N       -2.10808        -9.75169        -0.46675
   C       -3.24445       -11.93189         0.27575
   C       -3.10060       -12.73828         1.39452
   S       -1.88486       -12.13287         2.51266
   C       -3.78447       -13.92712         1.74849
   C       -4.74097       -14.54327         1.00904
   C       -5.43743       -15.72186         1.39754
   C       -6.40103       -16.29173         0.59455
   C       -7.14365       -17.42659         0.91261
   C       -6.95329       -18.12030         2.18960
   C       -6.05645       -17.74908         3.12846
   S       -5.01210       -16.40069         2.96718
   C       -7.88417       -19.19313         2.17732
   C       -8.61420       -19.18126         0.98632
   C       -9.52932       -20.25827         0.93295
   C       -9.47604       -21.02453         2.05363
   S       -8.31829       -20.48657         3.22018
   C       -8.16066       -18.07435         0.17909
   C       -8.60420       -17.69122        -1.10572
   C       -9.69026       -18.18510        -1.75685
   C      -10.08184       -17.81536        -3.06334
   C      -11.21515       -18.25449        -3.72887
   C      -11.29882       -17.72916        -5.01496
   C      -10.21789       -16.88160        -5.35441
   S       -9.10279       -16.72785        -4.04766
   C      -10.42708       -16.46258        -6.66424
   C      -11.64152       -17.05788        -7.09682
   N      -12.15656       -17.81647        -6.07796
   C      -11.98725       -16.74588        -8.40246
   C      -11.04118       -15.92476        -9.00284
   S       -9.71266       -15.52182        -7.91223
   C      -10.98848       -15.45814       -10.32864
   C      -11.99401       -15.56830       -11.24702
   C      -11.92069       -15.12223       -12.57957
   C      -10.83049       -14.87823       -13.37622
   C      -11.00879       -14.01170       -14.56730
   O      -12.05693       -13.61511       -15.02802
   C       -9.64286       -13.70019       -15.03854
   C       -9.24890       -12.86117       -16.03950
   C       -7.86851       -12.70178       -16.29828
   C       -6.92317       -13.41190       -15.50358
   C       -5.54813       -13.24501       -15.76235
   C       -5.13145       -12.41582       -16.76560
   C       -6.06703       -11.71534       -17.55169
   C       -7.40754       -11.85401       -17.32389
   F       -5.62996       -10.90727       -18.52897
   F       -3.82236       -12.26078       -17.01137
   C       -7.36324       -14.27809       -14.47573
   C       -8.70532       -14.42782       -14.25319
   C       -9.44377       -15.26689       -13.30753
   C       -8.91748       -16.37399       -12.68557
   C       -9.67643       -17.32439       -11.97787
   N      -10.24192       -18.15279       -11.41818
   C       -7.55913       -16.74027       -12.74921
   N       -6.46042       -17.07522       -12.75307
   H        6.85846        -2.17758         4.03235
   H        6.06052        -6.12116         6.92609
   H        5.10952        -2.91249         2.50625
   H        4.26340        -6.90191         5.37537
   H        1.12192        -5.83356         0.04345
   H       -0.53612        -7.21679        -0.92415
   H       -2.53821        -9.53076        -1.34767
   H       -3.93871       -12.13692        -0.51744
   H       -3.50137       -14.35549         2.70104
   H       -5.02518       -14.13103         0.05094
   H       -6.58920       -15.80365        -0.35256
   H       -5.93457       -18.28111         4.05873
   H      -10.19082       -20.48228         0.11670
   H      -10.05696       -21.89813         2.27668
   H       -8.02295       -16.92936        -1.61054
   H      -10.33240       -18.90296        -1.27010
   H      -11.92953       -18.92356        -3.28510
   H      -12.99218       -18.37311        -6.12127
   H      -12.85483       -17.11433        -8.91635
   H      -10.08114       -14.93819       -10.60937
   H      -12.95160       -15.95090       -10.92375
   H      -12.86683       -14.87073       -13.05086
   H       -9.97946       -12.32714       -16.62781
   H       -4.81863       -13.77764       -15.17244
   H       -8.11149       -11.31085       -17.93475
   H       -6.62428       -14.79667       -13.88626
*
