# ORCA input file
# SCF done       -236.992718850611          0.000721620492
! CAM-B3LYP def2-SVP def2/J RIJCOSX Grid4 TightSCF
%maxcore 5000
%tddft
    Mode sTDDFT
    Ethresh 5.0
    maxcore 5000
end

%pal
  nprocs 6
  end
* xyz 0 1
   C       -9.03088        -1.94925        -7.20651
   C       -9.37449        -0.86196        -7.95966
   F      -10.01956        -1.02454        -9.12250
   C       -9.05872         0.44088        -7.52474
   F       -9.41025         1.48882        -8.28248
   C       -8.40278         0.63819        -6.34206
   C       -8.03861        -0.46179        -5.54164
   C       -8.35801        -1.77989        -5.97953
   C       -8.01764        -2.89841        -5.18495
   C       -7.38403        -2.70434        -3.98535
   C       -7.06443        -1.38528        -3.56052
   C       -7.37345        -0.28617        -4.30790
   C       -6.40801        -1.44443        -2.24054
   O       -5.98484        -0.49587        -1.61079
   C       -6.37871        -2.86924        -1.86570
   C       -6.98429        -3.63832        -2.93685
   C       -7.21060        -4.98971        -2.96445
   C       -7.72618        -5.68633        -4.07821
   N       -8.12189        -6.32695        -4.94482
   C       -7.03354        -5.89393        -1.90159
   N       -7.01618        -6.71554        -1.09661
   C       -5.86565        -3.40717        -0.71776
   C       -5.25633        -2.79114         0.39457
   C       -4.88654        -3.51468         1.53056
   C       -4.22515        -2.73212         2.51147
   C       -4.08029        -1.38706         2.06438
   S       -4.80267        -1.11148         0.50681
   C       -3.45757        -0.39210         2.80020
   C       -3.36232         1.00968         2.27777
   C       -4.55261         1.84544         2.75234
   C       -2.98253        -0.75184         4.06206
   C       -3.15314        -2.08298         4.52253
   C       -3.75893        -3.08913         3.79444
   C       -3.86901        -4.45903         4.39337
   C       -2.55867        -5.23589         4.24713
   S       -2.50866        -2.27064         6.13793
   C       -2.03236        -0.61008         6.16775
   C       -2.33251         0.06125         5.03733
   C       -5.20682        -4.94234         1.62837
   C       -4.28986        -5.91828         1.40733
   C       -4.58422        -7.29170         1.41489
   C       -5.96034        -7.76786         1.56509
   C       -7.02353        -6.96742         1.79561
   S       -6.90622        -5.26461         1.94408
   C       -5.88935        -9.17603         1.37902
   C       -4.56881        -9.56066         1.14243
   C       -4.46247       -10.95807         0.95604
   C       -5.67215       -11.57256         1.03983
   S       -6.98563       -10.49791         1.36176
   C       -3.73719        -8.37867         1.17626
   C       -2.34181        -8.28164         0.94228
   C       -1.60996        -9.24661         0.33918
   C       -0.25763        -9.11889        -0.06713
   C        0.32663        -9.76436        -1.15937
   C        1.74595        -9.51962        -1.23941
   C        2.18648        -8.67811        -0.18696
   S        0.87429        -8.20344         0.86688
   C        3.49054        -8.26368        -0.00234
   C        3.86809        -7.34064         1.11661
   C        3.83152        -5.88500         0.64767
   C        4.41844        -8.70454        -0.95118
   C        3.97997        -9.50371        -2.02996
   C        2.66639        -9.91516        -2.21625
   C        2.32755       -10.74561        -3.41654
   C        2.50865       -12.23900        -3.13298
   S        5.30663        -9.89769        -3.09320
   C        6.40410        -9.00692        -2.09799
   C        5.81880        -8.43909        -1.02473
   C       -0.44085       -10.58719        -2.02845
   C       -1.76434       -10.47688        -2.36588
   C       -2.48783       -11.69130        -2.82088
   O       -1.99784       -12.74301        -3.16913
   C       -3.92283       -11.36609        -2.66988
   C       -5.00600       -12.18969        -2.76315
   C       -6.28993       -11.66812        -2.48244
   C       -6.42429       -10.29784        -2.11752
   C       -7.70222        -9.78927        -1.81351
   C       -8.79875       -10.60188        -1.87662
   C       -8.66672       -11.95530        -2.24198
   C       -7.43916       -12.47933        -2.53826
   F       -9.75834       -12.73384        -2.29190
   F      -10.01476       -10.11874        -1.58237
   C       -5.28508        -9.46422        -2.04373
   C       -4.05261        -9.99356        -2.31471
   C       -2.72193        -9.40023        -2.25787
   C       -2.45343        -8.05403        -2.21949
   C       -1.15263        -7.52380        -2.32597
   N       -0.11532        -7.04388        -2.43732
   C       -3.42065        -7.03868        -2.11890
   N       -4.13394        -6.14273        -2.01144
   H       -9.28145        -2.93954        -7.55359
   H       -8.16872         1.64165        -6.02261
   H       -8.27625        -3.88156        -5.54349
   H       -7.12362         0.70366        -3.95727
   H       -5.91555        -4.48671        -0.63848
   H       -3.35689         0.98492         1.18626
   H       -2.43227         1.47010         2.61468
   H       -5.48136         1.41521         2.38574
   H       -4.47097         2.86224         2.37699
   H       -4.59007         1.87586         3.83923
   H       -4.68112        -5.01498         3.92895
   H       -4.09384        -4.35439         5.45806
   H       -2.26692        -5.30536         3.20322
   H       -2.67397        -6.24187         4.64181
   H       -1.76117        -4.73814         4.79291
   H       -1.54709        -0.23394         7.04755
   H       -2.10837         1.10219         4.89228
   H       -3.28304        -5.60299         1.17173
   H       -8.02861        -7.34543         1.89138
   H       -3.55354       -11.50498         0.78160
   H       -5.88087       -12.61935         0.93617
   H       -1.86338        -7.33812         1.17246
   H       -2.10395       -10.15834         0.03540
   H        4.86759        -7.58523         1.47963
   H        3.16473        -7.47037         1.94269
   H        4.53633        -5.72979        -0.16584
   H        4.08943        -5.21757         1.46645
   H        2.83610        -5.63082         0.29125
   H        2.99835       -10.46424        -4.23245
   H        1.30648       -10.53565        -3.73836
   H        3.55613       -12.45506        -2.93537
   H        2.18938       -12.82629        -3.99010
   H        1.93174       -12.54965        -2.26429
   H        7.43654        -8.96508        -2.38606
   H        6.35368        -7.84829        -0.30350
   H        0.02672       -11.49575        -2.38795
   H       -4.88653       -13.22751        -3.03509
   H       -7.80974        -8.75521        -1.52394
   H       -7.35570       -13.51905        -2.81400
   H       -5.41738        -8.43592        -1.74587
*
