# ORCA input file
# SCF done       -183.628218000995          0.000827321586
! CAM-B3LYP def2-SVP def2/J RIJCOSX Grid4 TightSCF
%maxcore 5000
%tddft
    Mode sTDDFT
    Ethresh 5.0
    maxcore 5000
end

%pal
  nprocs 6
  end
* xyz 0 1
   C       -0.42495         4.73351        -9.54089
   C       -0.94891         4.32584       -10.74239
   C       -0.19442         3.74547       -11.78200
   N        0.35966         3.27051       -12.66889
   C       -2.30570         4.42870       -11.10900
   N       -3.39531         4.47931       -11.46992
   C        0.97753         4.63166        -9.14789
   C        1.12787         5.16486        -7.83500
   C        2.33824         5.19886        -7.20600
   C        3.47710         4.69105        -7.87142
   C        3.33516         4.15634        -9.18392
   C        2.06815         4.13510        -9.81118
   C        4.47688         3.65173        -9.83889
   C        5.70112         3.67292        -9.22803
   C        5.83983         4.19954        -7.93536
   C        4.75151         4.69790        -7.27168
   C       -0.18345         5.62719        -7.34347
   O       -0.43100         6.13680        -6.27051
   C       -1.14040         5.33809        -8.43955
   C       -2.47456         5.62346        -8.34856
   C       -3.03802         6.20498        -7.23617
   C       -3.56149         6.72320        -6.26412
   C       -4.10751         7.30921        -5.14737
   S       -5.81497         7.66395        -5.03696
   C       -5.59333         8.32983        -3.44055
   C       -4.26377         8.26629        -3.04428
   C       -3.43476         7.69548        -3.99715
   C       -6.65939         8.83564        -2.72941
   C       -7.62633         9.27639        -2.13120
   C       -8.70780         9.77832        -1.43996
   C       -8.61192        10.34860        -0.20073
   C       -9.71212        10.85549         0.50137
   C       -9.64009        11.44301         1.74274
   C      -10.71308        11.97192         2.49801
   C      -10.34630        12.50341         3.69834
   C       -8.96100        12.42579         3.95825
   S       -8.13640        11.64684         2.62682
   C       -8.27427        12.88446         5.06768
   C       -8.79844        13.53880         6.20480
   C       -7.85678        13.89117         7.12429
   C       -6.53624        13.53311         6.76209
   S       -6.53687        12.71732         5.20678
   C       -5.37701        13.77369         7.45790
   C       -4.15056        13.37967         6.97998
   C       -3.11211        12.99602         6.46631
   C       -1.94970        12.56759         5.86891
   S       -0.37362        12.99597         6.48011
   C        0.39209        12.10194         5.18911
   C       -0.54793        11.51165         4.35710
   C       -1.85569        11.77439         4.73273
   C        1.76205        12.05329         5.05887
   C        2.97483        12.03135         4.93786
   C        4.33945        11.98097         4.74534
   C        5.23668        12.71130         5.46749
   C        6.61807        12.62952         5.20279
   C        7.59073        13.35500         5.83804
   C        9.01518        13.29824         5.58249
   C        9.66777        12.47235         4.70033
   C       11.06446        12.46399         4.50810
   N       12.19204        12.40140         4.29811
   C        9.06232        11.51221         3.86507
   N        8.65336        10.70677         3.15464
   C        9.66226        14.28013         6.44767
   C        8.66459        14.91706         7.23868
   C        7.34136        14.36274         6.89767
   O        6.27795        14.68081         7.39065
   C        8.97302        15.88819         8.14611
   C       10.32183        16.27782         8.30735
   C       11.32636        15.64744         7.51868
   C       10.97560        14.64297         6.58725
   C       12.66870        16.04430         7.68527
   C       13.00467        17.01679         8.58729
   C       12.01451        17.63679         9.36367
   C       10.70171        17.27507         9.22660
   H        2.42676         5.60776        -6.21032
   H        1.99432         3.72328       -10.80517
   H        4.36463         3.24729       -10.83426
   H        6.56970         3.28362        -9.73789
   H        6.81318         4.20848        -7.46788
   H        4.85260         5.10479        -6.27605
   H       -3.14948         5.39595        -9.16363
   H       -3.93474         8.62989        -2.08715
   H       -2.37448         7.55158        -3.89067
   H       -9.67275         9.70325        -1.92681
   H       -7.63920        10.41764         0.26993
   H      -10.69099        10.78697         0.04384
   H      -11.72336        11.94403         2.12924
   H      -11.03167        12.94840         4.39707
   H       -9.85027        13.73428         6.31279
   H       -8.06704        14.39923         8.04909
   H       -5.42346        14.29913         8.40166
   H       -0.26566        10.91870         3.50540
   H       -2.72698        11.41344         4.21605
   H        4.69001        11.32200         3.95779
   H        4.89271        13.37389         6.24757
   H        6.91580        11.94036         4.42219
   H        8.19633        16.35543         8.73340
   H       11.76065        14.18721         6.00528
   H       13.42742        15.56361         7.08508
   H       14.03586        17.31376         8.70750
   H       12.29706        18.40244        10.07086
   H        9.93470        17.74912         9.82170
*
