# ORCA input file
# SCF done       -217.114522169091          0.000716690881
! CAM-B3LYP def2-SVP def2/J RIJCOSX Grid4 TightSCF
%maxcore 5000
%tddft
    Mode sTDDFT
    Ethresh 5.0
    maxcore 5000
end

%pal
  nprocs 6
  end
* xyz 0 1
   C        2.14507        -5.62809         2.78832
   C        3.24065        -5.26656         3.55496
   C        4.12742        -4.31705         3.04312
   C        5.25230        -3.93153         3.81383
   N        6.15769        -3.62359         4.44315
   C        3.92547        -3.73417         1.77738
   C        4.84280        -2.77434         1.28678
   N        5.57399        -1.99634         0.87265
   C        2.82014        -4.10084         1.00784
   C        1.95128        -5.03676         1.52590
   C        0.71528        -5.57589         0.91528
   O        0.27954        -5.28847        -0.18034
   C        0.15403        -6.50797         1.90354
   C        1.05401        -6.57218         3.03883
   C        0.95231        -7.37653         4.14417
   C        1.88557        -7.38911         5.20335
   N        2.60407        -7.44423         6.09648
   C       -0.06921        -8.31923         4.38968
   N       -0.84923        -9.11637         4.66344
   C       -1.03847        -7.17584         1.79260
   C       -1.98841        -7.18966         0.75661
   C       -3.16107        -7.92554         0.86947
   C       -3.99938        -7.83860        -0.24353
   C       -3.43087        -7.00965        -1.25080
   S       -1.89372        -6.35299        -0.78276
   C       -4.06502        -6.79896        -2.45724
   S       -3.31907        -5.76981        -3.69478
   C       -2.95792        -7.03247        -4.96117
   C       -5.32411        -7.38837        -2.64974
   C       -5.89992        -8.22090        -1.64430
   C       -5.25372        -8.46976        -0.44722
   S       -5.83199        -9.44313         0.89577
   C       -6.98781       -10.65010         0.18933
   S       -7.49025        -8.76048        -2.14419
   C       -7.36092        -7.90276        -3.65914
   C       -6.17041        -7.22868        -3.76188
   C       -8.43218        -7.96761        -4.59990
   C       -8.37066        -7.43886        -5.91300
   C       -9.49491        -7.53412        -6.79943
   N       -9.41670        -7.02153        -8.04096
   C       -8.31282        -6.44774        -8.42785
   C       -7.20127        -6.37504        -7.56542
   N       -7.23633        -6.85676        -6.35438
   C      -10.71586        -8.15158        -6.44180
   C      -10.77372        -8.69012        -5.14205
   C       -9.64180        -8.60027        -4.25095
   N       -9.89320        -9.18125        -3.07544
   S      -11.38534        -9.77217        -3.08650
   N      -11.79650        -9.33073        -4.57068
   C      -11.78750        -8.22523        -7.37432
   C      -13.03416        -8.76361        -7.16746
   C      -13.86169        -8.73268        -8.30290
   C      -13.21639        -8.12912        -9.41735
   S      -11.59104        -7.61866        -8.99447
   C      -13.84453        -8.03162       -10.64432
   S      -13.17594        -7.31054       -12.10447
   C      -12.14808        -5.93486       -11.51908
   C      -15.13088        -8.60650       -10.76085
   C      -15.77500        -9.20496        -9.64164
   C      -15.17285        -9.24781        -8.39729
   S      -15.86532        -9.95648        -6.94133
   C      -17.63065        -9.52896        -7.03550
   S      -17.32000        -9.86101       -10.10634
   C      -17.12745        -9.29407       -11.75195
   C      -15.91500        -8.66527       -11.92140
   C      -18.13059        -9.58547       -12.69891
   C      -18.32165        -9.05871       -13.94404
   C      -19.14675        -9.81757       -14.91892
   O      -19.86989       -10.75760       -14.69017
   C      -18.84666        -9.20638       -16.23592
   C      -19.25419        -9.61573       -17.48728
   C      -18.80033        -8.89668       -18.59497
   C      -17.94769        -7.79010       -18.41943
   C      -17.55188        -7.37594       -17.14572
   C      -18.01017        -8.08803       -16.05130
   C      -17.79655        -7.89217       -14.61541
   C      -17.41200        -6.70994       -14.03788
   C      -17.47632        -6.46102       -12.65177
   N      -17.54776        -6.20126       -11.53628
   C      -16.98833        -5.57791       -14.76421
   N      -16.61735        -4.63865       -15.30908
   C      -17.47835        -7.08609       -19.55610
   N      -17.08863        -6.51793       -20.47033
   C      -19.19208        -9.28643       -19.89834
   N      -19.51775        -9.61864       -20.94467
   H        3.43019        -5.68768         4.52920
   H        2.64766        -3.66372         0.03606
   H       -1.32802        -7.79522         2.63308
   H       -3.39577        -8.50878         1.74276
   H       -3.87151        -7.52733        -5.27324
   H       -2.24950        -7.74743        -4.55376
   H       -2.51229        -6.50118        -5.79543
   H       -7.06950       -11.43169         0.93922
   H       -6.57464       -11.05528        -0.72771
   H       -7.95897       -10.19912         0.01411
   H       -5.93493        -6.61024        -4.60732
   H       -8.29070        -6.04437        -9.43005
   H       -6.27175        -5.91944        -7.87809
   H      -13.33423        -9.18269        -6.22471
   H      -11.16209        -6.28710       -11.23457
   H      -12.64369        -5.44856       -10.68621
   H      -12.07625        -5.25365       -12.36202
   H      -17.73997        -8.54780        -7.48425
   H      -17.97721        -9.50934        -6.00660
   H      -18.17939       -10.27878        -7.59638
   H      -15.55949        -8.30248       -12.86904
   H      -18.80684       -10.39537       -12.44165
   H      -19.90338       -10.46969       -17.60734
   H      -16.89415        -6.52672       -17.04678
*
