# ORCA input file
# SCF done       -180.695376875257          0.000721488515
! CAM-B3LYP def2-SVP def2/J RIJCOSX Grid4 TightSCF
%maxcore 5000
%tddft
    Mode sTDDFT
    Ethresh 5.0
    maxcore 5000
end

%pal
  nprocs 6
  end
* xyz 0 1
   C        2.00023        -3.44275         0.08878
   C        3.20723        -2.79838         0.30091
   C        3.88505        -3.03374         1.49956
   C        5.12513        -2.38840         1.73144
   N        6.12629        -1.86188         1.90875
   C        3.36319        -3.89972         2.47968
   C        4.08105        -4.11494         3.68093
   N        4.65701        -4.30031         4.65304
   C        2.14518        -4.54673         2.26399
   C        1.49060        -4.30867         1.07459
   C        0.20815        -4.87773         0.60876
   O       -0.47855        -5.67554         1.21723
   C       -0.03451        -4.29648        -0.71581
   C        1.06516        -3.41289        -1.04021
   C        1.23537        -2.67047        -2.18019
   C        2.34600        -1.83255        -2.42007
   N        3.22157        -1.13613        -2.67576
   C        0.35011        -2.62210        -3.27892
   N       -0.30528        -2.51637        -4.21596
   C       -1.12170        -4.56071        -1.51811
   C       -2.21642        -5.39489        -1.28874
   C       -3.24516        -5.54574        -2.25939
   O       -3.15360        -4.86610        -3.40860
   C       -4.18602        -5.02744        -4.35869
   C       -4.24365        -6.42250        -1.86376
   C       -4.02000        -6.94762        -0.59397
   S       -2.55747        -6.35716         0.12390
   C       -4.83067        -7.89664         0.08449
   C       -4.51935        -8.29510         1.40621
   C       -5.25712        -9.31164         2.10206
   N       -4.90188        -9.64452         3.34757
   C       -3.89305        -9.04542         3.93064
   C       -3.16893        -8.01651         3.24182
   N       -3.50371        -7.68293         2.02303
   C       -2.08847        -7.34739         3.87311
   N       -1.22348        -6.83485         4.42004
   C       -3.53190        -9.42246         5.24850
   N       -3.21350        -9.70793         6.31055
   C       -6.33690       -10.01092         1.50532
   C       -6.72477        -9.53548         0.23107
   C       -5.98159        -8.50422        -0.46837
   N       -6.54393        -8.20992        -1.64187
   S       -7.86884        -9.09791        -1.82991
   N       -7.80044        -9.91021        -0.45851
   C       -6.94387       -11.08697         2.20446
   C       -7.72044       -12.15112         1.69806
   O       -7.87443       -12.31464         0.37941
   C       -8.76227       -13.31856        -0.06315
   C       -8.19996       -12.99269         2.70154
   C       -7.80559       -12.61185         3.97594
   S       -6.73995       -11.23304         3.91499
   C       -8.05088       -13.21372         5.22372
   C       -8.98515       -14.14004         5.59504
   C       -8.75458       -14.91014         6.84744
   O       -7.94545       -14.67343         7.71055
   C       -9.69305       -16.05521         6.77476
   C       -9.80141       -17.13323         7.62668
   C      -10.74530       -18.11724         7.32559
   C      -11.55124       -17.99661         6.17761
   C      -11.44178       -16.89303         5.32839
   C      -10.50955       -15.91750         5.63512
   C      -10.18176       -14.65194         4.97229
   C      -11.01216       -13.98776         4.10657
   C      -10.81749       -12.65209         3.69962
   N      -10.72889       -11.55858         3.36303
   C      -12.19856       -14.53458         3.57518
   N      -13.15300       -14.94269         3.08586
   C      -12.48717       -19.01624         5.87297
   N      -13.24192       -19.83704         5.61409
   C      -10.88752       -19.24361         8.17187
   N      -10.98730       -20.14933         8.86510
   H        3.64152        -2.12683        -0.42220
   H        1.72479        -5.21268         3.00258
   H       -1.16183        -4.06697        -2.48180
   H       -3.91235        -4.39053        -5.19740
   H       -5.14957        -4.70862        -3.95192
   H       -4.25675        -6.06655        -4.69169
   H       -5.10840        -6.68858        -2.44219
   H       -8.39420       -14.31772         0.19068
   H       -8.80620       -13.21478        -1.14541
   H       -9.76143       -13.17525         0.35719
   H       -8.76991       -13.88342         2.50965
   H       -7.34890       -12.95123         6.01029
   H       -9.17286       -17.21445         8.50039
   H      -12.07364       -16.83488         4.45602
*
