# ORCA input file
# SCF done       -206.998658911356          0.000703564794
! CAM-B3LYP def2-SVP def2/J RIJCOSX Grid4 TightSCF
%maxcore 5000
%tddft
    Mode sTDDFT
    Ethresh 5.0
    maxcore 5000
end

%pal
  nprocs 6
  end
* xyz 0 1
   C        9.00878         6.90275       -11.63736
   C        7.78702         6.34180       -11.89289
   C        6.94087         5.97675       -10.83561
   C        7.32771         6.17761        -9.53855
   C        8.57804         6.75502        -9.23947
   C        8.97735         6.97655        -7.90076
   C       10.19733         7.54169        -7.64942
   C       11.06225         7.88991        -8.72809
   C       10.69842         7.69593       -10.02876
   C        9.43795         7.12313       -10.31391
   C       12.32026         8.43762        -8.18600
   O       13.26585         8.88313        -8.79740
   C       12.21373         8.26784        -6.71222
   C       10.84603         7.92462        -6.39946
   C       10.19851         8.18870        -5.21880
   C        8.83643         7.91283        -4.99429
   N        7.73530         7.68805        -4.75790
   C       10.80786         8.86625        -4.14387
   N       11.25992         9.46674        -3.27546
   C       13.33946         8.34978        -5.94669
   C       13.60110         7.83541        -4.66091
   C       14.68375         8.18434        -3.85929
   C       14.73954         7.49724        -2.66052
   C       13.70208         6.56752        -2.54414
   S       12.65859         6.56501        -3.91063
   C       13.64680         5.78942        -1.37128
   C       14.63158         6.00671        -0.40332
  Ge       15.84176         7.43465        -1.02319
   C       17.69500         6.80401        -1.33491
   C       15.70239         9.08300         0.06420
   C       14.47113         5.19584         0.70468
   C       13.36721         4.35175         0.60844
   S       12.51516         4.57605        -0.90235
   C       12.94092         3.43061         1.57927
   C       13.55717         3.16470         2.81180
   C       12.85492         2.17749         3.58648
   N       13.29127         1.78472         4.78111
   C       14.39813         2.34142         5.22703
   C       14.89824         1.89767         6.54872
   O       14.33543         1.05689         7.21957
   C       16.14138         2.55193         6.99289
   C       16.78969         3.48040         6.28111
   C       16.33782         3.96088         4.96639
   O       16.94133         4.81203         4.34214
   C       15.09563         3.33050         4.46224
   N       14.67349         3.72523         3.27900
   C       11.70429         1.68758         2.95569
   S       11.51307         2.44872         1.40504
   C       10.81744         0.73686         3.48168
   C        9.68056         0.20055         2.88132
   C        9.01966        -0.70534         3.68823
   C        9.65470        -0.86333         4.92737
   S       11.07648         0.09934         5.08504
   C        9.06412        -1.74295         5.85953
   C        7.88598        -2.39878         5.46222
  Ge        7.42268        -1.85967         3.62618
   C        5.72345        -0.84694         3.48665
   C        7.58198        -3.32959         2.30383
   C        7.40099        -3.20609         6.46352
   C        8.17482        -3.19102         7.63479
   S        9.55833        -2.13279         7.45698
   C        7.81287        -3.93838         8.76323
   C        8.41405        -4.04672         9.99290
   C        7.93544        -4.84082        11.10600
   C        6.80839        -5.62417        11.14928
   C        6.40687        -6.36975        12.27667
   N        6.01599        -6.99748        13.15546
   C        5.88674        -5.80791        10.09923
   N        5.08970        -6.01677         9.29764
   C        8.87455        -4.66183        12.21048
   C        9.90943        -3.77966        11.78742
   C       10.93832        -3.42151        12.60851
   C       10.98099        -3.94003        13.92268
   C       12.01646        -3.60793        14.81762
   C       12.03627        -4.12161        16.08618
   C       11.02113        -4.98932        16.51448
   C       10.00097        -5.33195        15.66894
   C        9.94997        -4.82177        14.35615
   C        8.89694        -5.17467        13.47984
   C        9.65360        -3.37099        10.39750
   O       10.34003        -2.62200         9.72464
   H        9.66477         7.18589       -12.44755
   H        7.46627         6.17648       -12.91060
   H        5.97966         5.53608       -11.05405
   H        6.67809         5.90159        -8.72093
   H        8.31126         6.68377        -7.10399
   H       11.36266         7.97661       -10.83259
   H       14.19138         8.81148        -6.43836
   H       15.38439         8.94702        -4.15193
   H       17.69608         5.92003        -1.96499
   H       18.15959         6.55712        -0.38533
   H       18.28178         7.57967        -1.81730
   H       14.66473         9.39173         0.14496
   H       16.27180         9.88609        -0.39352
   H       16.09454         8.90126         1.06021
   H       15.10941         5.19066         1.57056
   H       16.50822         2.22606         7.95698
   H       17.70056         3.93503         6.64715
   H        9.37014         0.48187         1.88949
   H        5.67821        -0.07949         4.25298
   H        4.87742        -1.51579         3.61192
   H        5.64830        -0.37304         2.51251
   H        8.53605        -3.83484         2.41662
   H        7.51119        -2.93705         1.29408
   H        6.78527        -4.05237         2.45048
   H        6.50773        -3.80234         6.38449
   H        6.90344        -4.50837         8.61517
   H       11.70970        -2.75080        12.26025
   H       12.79529        -2.93890        14.48187
   H       12.83403        -3.86191        16.76606
   H       11.05095        -5.38562        17.51844
   H        9.21681        -5.99988        15.99423
   H        8.13326        -5.84482        13.84077
*
