# ORCA input file
# SCF done       -202.520590141565          0.000351093738
! CAM-B3LYP def2-SVP def2/J RIJCOSX Grid4 TightSCF
%maxcore 5000
%tddft
    Mode sTDDFT
    Ethresh 5.0
    maxcore 5000
end

%pal
  nprocs 6
  end
* xyz 0 1
   C        6.56632         6.25028        -8.73854
   C        7.35029         7.04422        -9.53107
   C        8.68274         7.30347        -9.17702
   C        9.21281         6.76556        -8.03602
   C        8.43326         5.94493        -7.19594
   C        8.97294         5.39502        -6.01054
   C        8.18564         4.60368        -5.21921
   C        6.83816         4.32597        -5.59481
   C        6.28964         4.85134        -6.72901
   C        7.08039         5.67990        -7.55737
   C        6.22968         3.42302        -4.60038
   O        5.09252         3.01532        -4.55443
   C        7.34674         3.04960        -3.68403
   C        8.45405         3.94503        -3.94670
   C        9.41696         4.32160        -3.04647
   C        9.45827         3.85073        -1.71845
   N        9.49778         3.51169        -0.62216
   C       10.41307         5.27961        -3.32035
   N       11.25573         6.03727        -3.50347
   C        7.22462         1.95686        -2.88446
   C        8.23967         1.17745        -2.28005
   C        8.07210         0.29410        -1.22510
   C        9.25556        -0.35346        -0.88437
   C       10.33205         0.00860        -1.71821
   S        9.89118         1.15105        -2.89779
   C       11.48620        -0.69586        -1.30129
   C       11.14766        -1.49821        -0.19805
   C        9.73474        -1.31322         0.09784
   C        9.01656        -1.91475         1.08838
   C        9.59788        -2.83224         1.98997
   N       10.05814        -3.58145         2.72559
   C        7.63917        -1.66822         1.27338
   N        6.51825        -1.47898         1.42129
   C       12.22887        -2.22271         0.29916
   C       13.39244        -1.98570        -0.40925
   S       13.13036        -0.83781        -1.72354
   C       14.70501        -2.52479        -0.20003
   C       15.75468        -2.16635        -1.03623
   C       17.04054        -2.64629        -0.86193
   C       17.37743        -3.52095         0.16315
   C       16.32634        -3.92782         1.04454
   N       16.58670        -4.78309         2.04912
   C       15.61732        -5.14304         2.84605
   C       14.31162        -4.65481         2.66959
   N       14.02487        -3.82660         1.70198
   C       15.00082        -3.43427         0.86407
   C       18.72856        -3.97849         0.31404
   C       19.26377        -4.80973         1.28024
   C       20.62889        -5.02353         1.10082
   C       21.14759        -4.34703        -0.01718
   S       19.95379        -3.45162        -0.84133
   C       22.53174        -4.62312        -0.11280
   C       22.89281        -5.48355         0.94909
   C       21.70883        -5.74942         1.75227
   C       21.62096        -6.49752         2.88825
   C       22.73311        -7.13157         3.48495
   N       23.61611        -7.64179         4.00769
   C       20.39883        -6.67731         3.57255
   N       19.41224        -6.83257         4.13570
   C       24.23572        -5.83465         0.93380
   C       24.91849        -5.25077        -0.12647
   S       23.85072        -4.23402        -1.10846
   C       26.26988        -5.27494        -0.52507
   C       27.31530        -6.05121        -0.10700
   C       28.68197        -5.88455        -0.57595
   C       29.19362        -4.80742        -1.25370
   C       30.53905        -4.70191        -1.66536
   N       31.61531        -4.55272        -2.03609
   C       28.48548        -3.64020        -1.60858
   N       27.98962        -2.65039        -1.91602
   C       29.45389        -7.03606        -0.12606
   C       28.61124        -7.85802         0.67346
   C       29.05993        -9.01038         1.25122
   C       30.40117        -9.40429         1.04722
   C       30.92321       -10.58129         1.61845
   C       32.22447       -10.94593         1.40194
   C       33.06033       -10.14919         0.60530
   C       32.58437        -8.99917         0.03664
   C       31.24967        -8.59315         0.23944
   C       30.75581        -7.40333        -0.34315
   C       27.26368        -7.26949         0.74128
   O       26.31408        -7.73186         1.33771
   H        5.53975         6.04745        -9.00647
   H        6.94814         7.47658       -10.43500
   H        9.28735         7.93269        -9.81282
   H       10.23696         6.96515        -7.75680
   H       10.00216         5.60302        -5.76194
   H        5.26429         4.63857        -6.99260
   H        6.21235         1.58515        -2.75473
   H        7.13033         0.16968        -0.72166
   H       12.20476        -2.89495         1.13643
   H       15.56591        -1.48418        -1.85260
   H       17.80889        -2.32126        -1.54860
   H       15.87538        -5.83102         3.63902
   H       13.49489        -4.94062         3.31768
   H       18.65949        -5.22491         2.06496
   H       24.71583        -6.48893         1.63882
   H       26.49081        -4.55857        -1.30832
   H       28.39869        -9.61213         1.85685
   H       30.27458       -11.19044         2.23079
   H       32.61672       -11.85006         1.84299
   H       34.08441       -10.45117         0.44454
   H       33.22461        -8.38158        -0.57609
   H       31.42277        -6.81502        -0.95289
*
