# ORCA input file
# SCF done       -171.461643567634          0.000912021302
! CAM-B3LYP def2-SVP def2/J RIJCOSX Grid4 TightSCF
%maxcore 5000
%tddft
    Mode sTDDFT
    Ethresh 5.0
    maxcore 5000
end

%pal
  nprocs 6
  end
* xyz 0 1
   C        4.25689         0.33917         1.77776
   C        3.41079         1.03106         0.94690
   N        3.53776         2.44623         0.82113
   O        4.53523         2.94944         1.29854
   O        2.65697         3.06279         0.26077
   C        2.46299         0.20918         0.26885
   C        1.49223         0.69571        -0.74795
   C        2.61868        -1.11058         0.63527
   S        3.92382        -1.32151         1.78213
   C        1.87900        -2.25918         0.20999
   C        0.57943        -2.32739        -0.24500
   C        0.20399        -3.63637        -0.56468
   C        1.23028        -4.56935        -0.34415
   S        2.65221        -3.83919         0.25454
   C        0.75834        -5.85573        -0.70139
   C       -0.57359        -5.73854        -1.14623
   C       -0.95312        -4.33198        -1.10198
   C       -2.11425        -3.77185        -1.54443
   C       -2.34278        -2.38173        -1.45560
   N       -2.51974        -1.25138        -1.38021
   C       -3.13618        -4.51417        -2.17676
   N       -3.95990        -5.08138        -2.73557
   C       -1.13991        -6.95561        -1.50398
   C       -0.23624        -8.00246        -1.35886
   S        1.32596        -7.46410        -0.75487
   C       -0.47054        -9.35335        -1.67532
   C       -1.69388        -9.93034        -2.04453
   C       -1.56944       -11.32217        -2.37746
   N       -2.61355       -12.04328        -2.78317
   C       -3.77768       -11.43204        -2.82815
   C       -4.94139       -12.22225        -3.30195
   O       -4.85228       -13.38916        -3.61975
   C       -6.21218       -11.47947        -3.36377
   C       -6.35099       -10.21248        -2.96017
   C       -5.25086        -9.40909        -2.39684
   O       -5.42598        -8.31179        -1.91481
   C       -3.91625       -10.06192        -2.43668
   N       -2.88652        -9.33038        -2.07054
   C       -0.26781       -11.81661        -2.24213
   S        0.79062       -10.55357        -1.70093
   C        0.13424       -13.13029        -2.53388
   C        1.40103       -13.68629        -2.40568
   C        1.42067       -15.00710        -2.83317
   C        0.16177       -15.45385        -3.29248
   S       -1.05126       -14.25685        -3.18081
   C        0.29239       -16.79521        -3.73201
   C        1.63388       -17.19202        -3.54535
   C        2.38186       -16.08880        -2.96641
   C        3.70187       -16.07045        -2.62212
   C        4.31484       -14.92754        -2.06745
   N        4.81463       -13.99789        -1.61875
   C        4.53645       -17.19385        -2.79864
   N        5.21236       -18.10852        -2.94489
   C        1.86526       -18.48904        -3.97358
   C        0.72141       -19.08733        -4.49904
   S       -0.66943       -18.01259        -4.43733
   C        0.71740       -20.41067        -5.01737
   C       -0.19896       -21.14547        -5.77944
   N       -1.46238       -20.67443        -6.15740
   O       -1.90572       -19.68474        -5.57853
   O       -2.07642       -21.25442        -7.03028
   C        0.27203       -22.44667        -6.15374
   C       -0.48496       -23.44350        -6.95796
   C        1.51319       -22.68051        -5.66043
   S        2.15330       -21.35871        -4.76784
   H        5.03951         0.75738         2.37976
   H        1.87621         1.58196        -1.24599
   H        0.55249         0.97825        -0.27362
   H        1.29205        -0.07788        -1.48539
   H       -0.07451        -1.47859        -0.30158
   H       -2.14504        -7.11665        -1.85055
   H       -7.05074       -12.04185        -3.75191
   H       -7.30686        -9.70836        -3.00575
   H        2.24193       -13.13552        -2.02346
   H        2.81615       -18.98956        -3.92927
   H       -1.46404       -23.62875        -6.51999
   H        0.06991       -24.37674        -7.00794
   H       -0.65200       -23.06924        -7.96635
   H        2.10294       -23.56794        -5.77330
*
