# ORCA input file
# SCF done       -204.764075386444          0.000368654609
! CAM-B3LYP def2-SVP def2/J RIJCOSX Grid4 TightSCF
%maxcore 5000
%tddft
    Mode sTDDFT
    Ethresh 5.0
    maxcore 5000
end

%pal
  nprocs 6
  end
* xyz 0 1
   C       -0.48548         4.32888         4.96481
   C        0.46212         3.48772         4.44432
   C        1.75573         3.32463         4.98530
   N        2.81911         3.14683         5.37844
   C        0.30739         2.68790         3.29165
   N        0.26476         2.01930         2.35928
   C       -0.29989         5.19706         6.12260
   C       -1.46362         5.98893         6.29094
   C       -1.59544         6.91273         7.29950
   C       -0.52800         7.05964         8.19108
   C        0.62945         6.26198         8.01931
   C        0.76307         5.33110         6.99620
   S        1.82349         6.59875         9.23421
   C        0.76852         7.79003         9.94731
   C       -0.41827         7.93021         9.30908
  Br        1.33172         8.73387        11.46599
   C       -2.43865         5.63890         5.24747
   O       -3.53759         6.14067         5.08418
   C       -1.82853         4.56076         4.45887
   C       -2.45349         3.84559         3.47284
   C       -3.74461         3.97877         2.93266
   C       -4.23331         3.07894         1.97760
   C       -5.52138         3.37999         1.57916
   C       -6.02298         4.53834         2.21898
   S       -4.92398         5.22754         3.32314
   C       -7.34234         4.76115         1.75137
   C       -7.67581         3.74484         0.82880
   C       -6.54101         2.84895         0.68629
   C       -6.45043         1.74615        -0.10964
   C       -5.28821         0.94597        -0.15430
   N       -4.34918         0.28984        -0.19180
   C       -7.51032         1.32486        -0.94182
   N       -8.36343         0.97491        -1.62248
   C       -8.96825         3.87311         0.32907
   C       -9.60290         4.98322         0.86040
   S       -8.60778         5.88067         1.98543
   C      -10.92345         5.43851         0.59387
   N      -11.32190         6.57457         1.14076
   N      -12.50599         7.08245         0.96114
   C      -13.44750         6.50296         0.23593
   C      -13.15772         5.25705        -0.40118
   C      -11.83891         4.71189        -0.22913
   N      -11.79106         3.58312        -0.90488
   O      -12.98992         3.43538        -1.45745
   N      -13.82796         4.42551        -1.17082
   C      -14.70725         7.15211         0.11770
   C      -15.84758         6.68225        -0.51203
   C      -16.89026         7.59900        -0.41662
   C      -16.52288         8.77026         0.27984
   S      -14.90980         8.73538         0.83219
   C      -17.63848         9.64314         0.29953
   C      -18.71460         9.02157        -0.36297
   C      -18.27973         7.71480        -0.83129
   C      -19.02295         6.79107        -1.50331
   C      -18.49754         5.54258        -1.90259
   N      -18.08483         4.52335        -2.22527
   C      -20.37824         7.01342        -1.83081
   N      -21.48157         7.18728        -2.08807
   C      -19.86243         9.80782        -0.38199
   C      -19.66156        11.04230         0.21429
   S      -18.03262        11.19804         0.86709
   C      -20.64229        12.05170         0.38222
   C      -20.47618        13.38106         0.60421
   C      -19.33353        14.26147         0.46185
   C      -18.33982        14.14612        -0.47433
   C      -17.31418        15.09745        -0.64939
   N      -16.45371        15.83807        -0.81593
   C      -18.29261        13.10880        -1.42848
   N      -18.24527        12.29876        -2.24031
   C      -19.59658        15.44334         1.27302
   C      -20.95231        15.41533         1.69038
   C      -21.58719        14.17268         1.20902
   O      -22.73978        13.83030         1.32148
   C      -21.51229        16.42379         2.43706
   C      -20.69491        17.50049         2.79711
   C      -19.33917        17.51086         2.38630
   C      -18.77413        16.49661         1.62323
   S      -18.51079        18.92836         2.95127
   C      -19.97548        19.48469         3.71718
   C      -21.03184        18.65136         3.56041
  Br      -19.96960        21.10887         4.65308
   H       -2.49397         7.50122         7.39888
   H        1.66387         4.74698         6.91112
   H       -1.18548         8.61821         9.61388
   H       -1.89836         3.02481         3.03452
   H       -3.64779         2.25160         1.61728
   H       -9.44483         3.21614        -0.37647
   H      -15.88467         5.72616        -1.00297
   H      -20.79751         9.53026        -0.83394
   H      -21.67050        11.70193         0.40678
   H      -22.54854        16.38473         2.73389
   H      -17.73620        16.54045         1.33683
   H      -22.00901        18.83887         3.96642
*
