# ORCA input file
# SCF done       -196.100753618013          0.000368664918
! CAM-B3LYP def2-SVP def2/J RIJCOSX Grid4 TightSCF
%maxcore 5000
%tddft
    Mode sTDDFT
    Ethresh 5.0
    maxcore 5000
end

%pal
  nprocs 6
  end
* xyz 0 1
   C        5.04060        -3.42167         1.17480
   O        4.96122        -4.46419         0.56507
   C        6.26866        -2.62107         1.36911
   C        5.98678        -1.49400         2.15972
   C        7.00434        -0.61070         2.48110
   C        8.28451        -0.86871         2.00383
   C        8.55319        -1.98946         1.21405
   C        7.53679        -2.87946         0.89215
  Br       10.30236        -2.31253         0.57811
  Br        9.67572         0.33050         2.44906
   C        4.56641        -1.50244         2.49821
   C        3.89476        -0.49515         3.13799
   C        4.51160         0.67831         3.62332
   N        4.96207         1.64641         4.04266
   C        2.50166        -0.46808         3.36591
   N        1.37566        -0.36939         3.56620
   C        3.99119        -2.71887         1.95244
   C        2.76031        -3.21493         2.28727
   C        2.07894        -4.32263         1.74514
   C        2.21692        -4.97791         0.52706
   C        1.31428        -6.02243         0.39243
   C        0.47475        -6.18179         1.51819
   S        0.76988        -5.01257         2.71405
   C       -0.35629        -7.30962         1.30740
   C       -0.04974        -7.85587         0.04320
   C        0.99096        -7.05510        -0.57988
   C        1.53554        -7.22809        -1.81744
   C        1.13613        -8.28075        -2.66964
   N        0.81727        -9.13469        -3.36473
   C        2.51383        -6.35831        -2.34770
   N        3.29076        -5.65074        -2.80477
   C       -0.79752        -8.99461        -0.24502
   C       -1.65508        -9.30878         0.79291
   S       -1.56047        -8.19343         2.13503
   C       -2.53655       -10.42529         0.89616
   N       -3.23767       -10.54660         2.01391
   N       -4.02501       -11.54648         2.24965
   C       -4.20262       -12.54455         1.39625
   C       -3.53379       -12.51909         0.13921
   C       -2.66483       -11.41251        -0.12217
   N       -2.09423       -11.49810        -1.32047
   S       -2.60530       -12.83848        -2.04434
   N       -3.57003       -13.37617        -0.87718
   C       -5.04673       -13.61748         1.80861
   C       -5.33310       -14.78591         1.12773
   C       -6.16253       -15.61706         1.87628
   C       -6.50342       -15.06270         3.12844
   S       -5.80297       -13.52780         3.38229
   C       -7.32502       -15.99032         3.81867
   C       -7.49879       -17.12700         3.00168
   C       -6.76648       -16.93240         1.76119
   C       -6.64002       -17.82788         0.74016
   C       -7.25507       -19.09643         0.80246
   N       -7.76176       -20.12237         0.87692
   C       -5.88845       -17.54879        -0.42106
   N       -5.28340       -17.32156        -1.36763
   C       -8.25509       -18.11906         3.60753
   C       -8.66218       -17.76080         4.88631
   S       -8.11932       -16.14197         5.31402
   C       -9.44718       -18.49523         5.79972
   C       -9.70095       -19.83457         5.82111
   C      -10.87524       -20.32464         6.59605
   O      -11.53000       -19.69724         7.39313
   C      -11.08737       -21.71278         6.13326
   C      -10.05252       -22.07667         5.25192
   C       -9.09574       -20.97377         5.16227
   C       -7.79016       -21.10952         4.77138
   C       -6.81252       -20.10537         4.91765
   N       -5.97544       -19.32965         5.04049
   C       -7.24173       -22.30874         4.26616
   N       -6.74814       -23.25990         3.85786
   C      -10.06197       -23.32456         4.65333
   C      -11.10075       -24.19804         4.95623
   C      -12.11409       -23.83698         5.84798
   C      -12.11362       -22.58133         6.44231
  Br      -13.50485       -25.04949         6.25329
  Br      -11.12408       -25.89857         4.13402
   H        6.83688         0.26150         3.09196
   H        7.72951        -3.75008         0.28461
   H        2.23817        -2.72949         3.10373
   H        2.94078        -4.69316        -0.21280
   H       -0.73723        -9.58450        -1.14171
   H       -4.94237       -14.99447         0.14810
   H       -8.54106       -19.04310         3.13925
   H       -9.97556       -17.92002         6.55399
   H       -9.30009       -23.63071         3.95452
   H      -12.89469       -22.29137         7.12781
*
