# ORCA input file
# SCF done       -199.828349616177          0.000459490311
! CAM-B3LYP def2-SVP def2/J RIJCOSX Grid4 TightSCF
%maxcore 5000
%tddft
    Mode sTDDFT
    Ethresh 5.0
    maxcore 5000
end

%pal
  nprocs 6
  end
* xyz 0 1
   C       -0.48061         1.59552         4.73631
   C       -1.20505         2.60011         5.32204
   C       -2.09203         2.40986         6.39962
   N       -2.85807         2.31146         7.24969
   C       -1.11192         3.95450         4.94851
   N       -1.05758         5.07243         4.69395
   C       -0.34944         0.23905         5.25787
   C        0.78000        -0.37683         4.64478
   C        1.17164        -1.64366         4.96802
   C        0.43075        -2.37072         5.92733
   C       -0.70924        -1.76735         6.53202
   C       -1.08560        -0.44939         6.18389
   C       -1.44415        -2.50541         7.48180
   C       -1.07120        -3.77718         7.82194
   C        0.05250        -4.36989         7.22732
   C        0.78736        -3.68145         6.30058
   C        1.36608         0.55656         3.66717
   O        2.36235         0.40537         2.99667
   C        0.43964         1.72859         3.62989
   C        0.56201         2.59707         2.59275
   C       -0.29327         3.62007         2.06642
   C       -1.70036         3.62961         2.20172
   O       -2.27230         2.57516         2.83325
   C       -3.67825         2.50448         2.90616
   C       -2.42026         4.68790         1.66840
   C       -1.80142         5.73136         0.99507
   C       -0.41129         5.67423         0.75384
   C        0.30711         4.62547         1.29339
   O        0.10944         6.62733        -0.05635
   C        1.50854         6.69450        -0.20577
   C       -2.60572         6.86651         0.55491
   C       -2.21066         8.19287         0.77706
   C       -3.02658         9.30705         0.37643
   N       -2.54208        10.56860         0.50079
   C       -1.40587        10.74105         1.07642
   C       -0.66367         9.64108         1.60664
   N       -1.05178         8.42729         1.44262
   F        0.46751         9.85275         2.27768
   F       -0.92277        11.98070         1.15211
   C       -4.30357         9.13548        -0.17415
   C       -4.69032         7.81262        -0.43312
   C       -3.85462         6.68981        -0.05983
   N       -4.43137         5.52251        -0.37650
   S       -5.85037         5.81023        -1.05718
   N       -5.83598         7.40880        -0.99722
   C       -5.20581        10.25651        -0.41192
   C       -5.41250        11.22450         0.59512
   O       -4.79478        11.02526         1.78327
   C       -5.05898        11.92849         2.83511
   C       -6.27710        12.27429         0.34072
   C       -6.99778        12.36552        -0.85213
   C       -6.79875        11.37742        -1.85092
   C       -5.90775        10.34504        -1.60929
   O       -7.53543        11.50389        -2.98042
   C       -7.35087        10.57285        -4.02130
   C       -7.90064        13.43916        -1.14020
   C       -8.63452        14.22054        -0.29994
   C       -9.48048        15.31503        -0.75964
   C       -9.38888        15.95978        -1.96439
   C      -10.22616        17.02783        -2.34981
   N      -10.87773        17.89601        -2.72404
   C       -8.43632        15.69155        -2.97131
   N       -7.68667        15.57042        -3.83301
   C      -10.39101        15.66812         0.32081
   C      -10.05699        14.88471         1.46034
   C       -8.92718        13.99365         1.14138
   O       -8.40366        13.21811         1.91448
   C      -10.73389        14.99942         2.64024
   C      -11.80152        15.91943         2.73462
   C      -12.14984        16.70052         1.59508
   C      -11.42782        16.56131         0.38759
   C      -13.22228        17.60986         1.69838
   C      -13.91614        17.74445         2.86993
   C      -13.57047        16.97652         3.99199
   C      -12.53546        16.08383         3.92579
   H        2.03637        -2.08801         4.49781
   H       -1.95601        -0.01942         6.65447
   H       -2.30679        -2.04349         7.93945
   H       -1.63993        -4.33340         8.55210
   H        0.33275        -5.37445         7.50708
   H        1.65368        -4.13280         5.83932
   H        1.47958         2.44974         2.02677
   H       -3.89760         1.55384         3.39086
   H       -4.13086         2.52097         1.91078
   H       -4.08824         3.31952         3.51040
   H       -3.48633         4.74397         1.80732
   H        1.37609         4.57381         1.16170
   H        2.00465         6.82656         0.75972
   H        1.69524         7.56784        -0.82884
   H        1.90430         5.80517        -0.70688
   H       -4.63733        12.91572         2.62377
   H       -4.56667        11.50776         3.71067
   H       -6.13203        12.02033         3.02454
   H       -6.40619        13.05391         1.06821
   H       -5.73064         9.58347        -2.34996
   H       -8.02247        10.89038        -4.81728
   H       -7.61526         9.56025        -3.70208
   H       -6.32123        10.58473        -4.39034
   H       -8.04537        13.59712        -2.20283
   H      -10.45763        14.39495         3.49161
   H      -11.71958        17.16263        -0.45870
   H      -13.48360        18.20020         0.83238
   H      -14.73566        18.44407         2.93889
   H      -14.12860        17.09565         4.90866
   H      -12.26463        15.48949         4.78630
*
