# ORCA input file
# SCF done       -152.370044837708          0.000780025698
! CAM-B3LYP def2-SVP def2/J RIJCOSX Grid4 TightSCF
%maxcore 5000
%tddft
    Mode sTDDFT
    Ethresh 5.0
    maxcore 5000
end

%pal
  nprocs 6
  end
* xyz 0 1
   C       -0.71513         0.33442        -2.36763
   C       -0.70118         1.71162        -2.59497
   C       -0.86908         2.03954        -3.91852
   S       -0.90402         3.66114        -4.55151
   C       -1.12229         3.34154        -6.32386
   S       -1.04806         0.62649        -4.90445
   C       -0.89403        -0.42001        -3.51019
   C       -0.96441        -1.82214        -3.69290
   C       -0.85322        -2.74356        -2.69849
   C       -0.92863        -4.14263        -2.87988
   C       -0.82987        -5.08931        -1.87758
   C       -0.97077        -6.38417        -2.43693
   C       -1.15387        -6.15901        -3.87167
   C       -1.13177        -4.84611        -4.14788
   F       -1.31904        -7.14772        -4.76493
   C       -0.96242        -7.60854        -1.79529
   C       -1.14437        -8.89750        -2.35269
   C       -1.10220        -9.84634        -1.34540
   C       -0.86702        -9.14847        -0.08042
   C       -0.78678        -7.83831        -0.36048
   F       -0.57556        -6.85639         0.52988
   C       -1.28635       -11.23154        -1.52464
   C       -1.29996       -12.16520        -0.53026
   C       -1.53318       -13.54264        -0.72592
   N       -1.57446       -14.41905         0.34252
   C       -1.84925       -15.66519        -0.12361
   C       -2.06749       -16.98113         0.25238
   C       -2.32567       -17.69003        -0.93503
   N       -2.25736       -16.81727        -2.00527
   C       -1.97457       -15.57396        -1.53881
   C       -1.77758       -14.25497        -1.91393
   C       -2.63851       -19.05061        -1.13422
   C       -2.77089       -19.98059        -0.14522
   C       -3.12491       -21.33009        -0.34461
   C       -3.31197       -22.26933         0.65420
   C       -3.70009       -23.50343         0.07560
   C       -3.72224       -23.25449        -1.36733
   C       -3.38665       -21.98244        -1.62972
   F       -4.03688       -24.18743        -2.27869
   C       -4.01980       -24.68879         0.70763
   C       -4.45370       -25.91231         0.13080
   C       -4.69534       -26.83092         1.13128
   C       -4.39866       -26.19090         2.41470
   C       -4.00436       -24.93576         2.14944
   F       -3.64089       -24.01614         3.05822
   C       -5.16799       -28.15298         0.93635
   C       -5.42482       -29.03692         1.93162
   C       -5.92366       -30.36489         1.75105
   C       -6.23014       -30.94490         0.48964
   C       -6.70199       -32.21663         0.57509
   S       -7.17594       -33.21042        -0.78077
   C       -7.68730       -34.73409         0.06190
   S       -6.78699       -32.76591         2.22240
   C       -6.17660       -31.24306         2.80413
   C       -5.99798       -31.03755         4.20858
   C       -6.27275       -31.93711         5.15431
   H       -0.59802        -0.10139        -1.39253
   H       -0.57338         2.45412        -1.82854
   H       -1.15227         4.31170        -6.80857
   H       -2.05584         2.81030        -6.48481
   H       -0.28263         2.76054        -6.69393
   H       -1.11768        -2.15580        -4.70951
   H       -0.69634        -2.40805        -1.68214
   H       -0.67880        -4.88148        -0.83645
   H       -1.24180        -4.39105        -5.11221
   H       -1.30429        -9.10238        -3.39288
   H       -0.77458        -9.60464         0.88537
   H       -1.44739       -11.55526        -2.54363
   H       -1.14087       -11.84886         0.49184
   H       -1.43856       -14.15211         1.30217
   H       -2.05085       -17.39911         1.23800
   H       -2.41270       -17.07953        -2.96340
   H       -1.80352       -13.83764        -2.89950
   H       -2.79862       -19.35208        -2.16085
   H       -2.61396       -19.67865         0.88112
   H       -3.19632       -22.09135         1.70519
   H       -3.31894       -21.52471        -2.59676
   H       -4.58145       -26.08518        -0.91982
   H       -4.48205       -26.64472         3.38234
   H       -5.33136       -28.43758        -0.09389
   H       -5.24943       -28.72696         2.95058
   H       -6.10971       -30.44425        -0.45248
   H       -8.01163       -35.41698        -0.71628
   H       -8.50807       -34.51832         0.73971
   H       -6.84303       -35.15213         0.60229
   H       -5.60879       -30.07046         4.49585
   H       -6.66280       -32.91197         4.91124
   H       -6.11676       -31.72365         6.19638
*
