# ORCA input file
# SCF done       -132.622353551086          0.000385272275
! CAM-B3LYP def2-SVP def2/J RIJCOSX Grid4 TightSCF
%maxcore 5000
%tddft
    Mode sTDDFT
    Ethresh 5.0
    maxcore 5000
end

%pal
  nprocs 6
  end
* xyz 0 1
   C        2.29517        -0.43866        -1.99429
   O        2.27980        -1.70882        -1.62965
   C        1.15840        -2.28644        -2.13445
   C        0.43217        -1.33135        -2.85122
   C        1.18910        -0.12556        -2.75068
   C        0.96437         1.24031        -3.29564
   F        1.95580         2.06995        -2.94175
   F        0.90885         1.28132        -4.64088
   F       -0.17301         1.81683        -2.86232
   O       -0.72433        -1.63346        -3.45961
   C       -1.45529        -0.62831        -4.13736
   C        0.93169        -3.66535        -1.86952
   C       -0.12172        -4.38079        -2.33322
   C       -0.36062        -5.76187        -2.08632
   C        0.37772        -6.58939        -1.29924
   C        0.07515        -7.95947        -1.12644
   C        0.80623        -8.79206        -0.33812
   C        0.53555       -10.16983        -0.17481
   C        1.19499       -11.10423         0.63414
   N        2.30766       -10.73272         1.43536
   O        3.04142        -9.85049         1.02666
   O        2.46885       -11.30606         2.49741
   C        0.65819       -12.41489         0.58870
   C        1.22107       -13.58636         1.31886
   C       -0.42898       -12.49423        -0.26721
   S       -0.79600       -10.93511        -0.97165
   C       -1.27146       -13.56922        -0.66575
   C       -1.17989       -14.88645        -0.36131
   C       -2.10342       -15.84270        -0.86377
   C       -2.01056       -17.16823        -0.60248
   C       -2.92539       -18.13316        -1.11550
   O       -3.95235       -17.73993        -1.88481
   C       -4.68473       -18.82627        -2.26274
   C       -4.10423       -19.96339        -1.71506
   C       -2.97379       -19.51296        -0.97731
   C       -2.08247       -20.44013        -0.23628
   F       -1.06843       -19.82192         0.39292
   F       -2.73752       -21.13206         0.71315
   F       -1.51314       -21.35621        -1.03973
   O       -4.39186       -21.27501        -1.75702
   C       -5.50313       -21.72929        -2.49270
   C       -5.83613       -18.58897        -3.09426
   C       -6.20972       -17.37521        -3.49834
   H        3.11640         0.17612        -1.68220
   H       -2.33997        -1.13202        -4.52293
   H       -0.88853        -0.21181        -4.97247
   H       -1.76425         0.16951        -3.45884
   H        1.69297        -4.12524        -1.25655
   H       -0.84348        -3.87124        -2.95375
   H       -1.22558        -6.18416        -2.58286
   H        1.24191        -6.21299        -0.77105
   H       -0.77861        -8.35683        -1.66299
   H        1.66648        -8.40257         0.18810
   H        2.03312       -13.28378         1.97266
   H        1.59344       -14.32525         0.60971
   H        0.44934       -14.04883         1.93207
   H       -2.08412       -13.26604        -1.31636
   H       -0.39183       -15.26812         0.26552
   H       -2.90993       -15.48525        -1.48934
   H       -1.21189       -17.54509         0.01658
   H       -5.50458       -22.81116        -2.36879
   H       -5.40376       -21.48641        -3.55449
   H       -6.43672       -21.31832        -2.09806
   H       -6.40757       -19.45351        -3.38987
   H       -5.65856       -16.49521        -3.21828
   H       -7.07636       -17.23576        -4.11878
*
