# ORCA input file
# SCF done       -201.304047833292          0.000640549671
! CAM-B3LYP def2-SVP def2/J RIJCOSX Grid4 TightSCF
%maxcore 5000
%tddft
    Mode sTDDFT
    Ethresh 5.0
    maxcore 5000
end

%pal
  nprocs 6
  end
* xyz 0 1
   C       -7.03060        -9.87259        -6.32326
   O       -6.34079        -9.68882        -5.20921
   C       -5.50859        -8.63454        -5.40337
   C       -5.68602        -8.12613        -6.68887
   C       -6.68808        -8.95032        -7.28440
   C       -7.30862        -8.93744        -8.63727
   F       -8.22552        -9.91137        -8.75189
   F       -7.94305        -7.79174        -8.93065
   F       -6.42426        -9.14326        -9.63176
   O       -4.98656        -7.06591        -7.11216
   C       -5.13640        -6.60169        -8.44523
   C       -4.61416        -8.16592        -4.39542
   C       -4.50093        -8.68982        -3.16077
   C       -3.59893        -8.22056        -2.13018
   C       -3.12120        -9.16333        -1.20575
   C       -2.21070        -8.76727        -0.25685
   C       -1.76396        -7.44106        -0.19594
   C       -0.81952        -7.32868         0.93860
   O       -0.22614        -6.36281         1.35133
   N       -0.73522        -8.60284         1.47671
   C       -1.54310        -9.52662         0.82583
   O       -1.63625       -10.69098         1.12016
   C        0.07088        -8.92918         2.63371
   C       -0.73059        -8.79219         3.92335
   C       -2.23621        -6.49425        -1.07371
   C       -3.17585        -6.87286        -2.04228
   C       -3.79139        -5.85541        -2.87746
   C       -3.13796        -4.80252        -3.39597
   C       -3.67537        -3.73581        -4.18532
   S       -2.55516        -2.48915        -4.64806
   C       -3.80790        -1.54739        -5.38796
   C       -5.01673        -2.20533        -5.31887
   C       -4.94857        -3.44181        -4.63902
   C       -6.15075        -4.30648        -4.40296
   C       -7.41439        -3.78034        -5.10593
   C       -7.42203        -4.19850        -6.48852
   N       -7.41935        -4.53375        -7.58077
   C       -7.48529        -2.24002        -5.03260
   C       -7.41646        -1.82104        -3.65111
   N       -7.34244        -1.50239        -2.55647
   C       -6.31180        -1.64343        -5.82175
   C       -3.53025        -0.25203        -5.99007
   C       -4.08990         0.04035        -7.24034
   C       -3.81417         1.25426        -7.82424
   C       -2.98024         2.18607        -7.19624
   C       -2.88364         3.37722        -8.07539
   O       -2.27712         4.40462        -7.91420
   N       -3.67323         3.08285        -9.17915
   C       -4.26475         1.83050        -9.11221
   O       -4.99841         1.36261        -9.94624
   C       -3.82977         3.97780       -10.30596
   C       -2.76433         3.72224       -11.36595
   C       -2.40860         1.91471        -5.97657
   C       -2.68357         0.68783        -5.35510
   C       -2.10835         0.37635        -4.06399
   C       -0.88783         0.76391        -3.64965
   C       -0.31240         0.23489        -2.45011
   O       -0.90763        -0.82469        -1.88309
   C       -0.14506        -1.27097        -0.86349
   C        0.98274        -0.46102        -0.73810
   C        0.86900         0.51965        -1.76459
   C        1.76266         1.67207        -2.05275
   F        1.25774         2.51308        -2.96558
   F        2.01036         2.43070        -0.96711
   F        2.97310         1.30710        -2.53049
   O        1.90053        -0.69206         0.21538
   C        3.18707        -0.10740         0.13812
   C       -0.56725        -2.45829        -0.17344
   C        0.10219        -3.05405         0.81103
   H       -7.74293       -10.67338        -6.35787
   H       -4.42022        -5.78787        -8.54049
   H       -6.14201        -6.21446        -8.61924
   H       -4.89456        -7.38174        -9.16891
   H       -3.98865        -7.34796        -4.72066
   H       -5.08216        -9.56933        -2.91757
   H       -3.45347       -10.18919        -1.25297
   H        0.92321        -8.24563         2.63935
   H        0.41879        -9.95774         2.51107
   H       -1.08202        -7.76971         4.04150
   H       -0.10522        -9.04808         4.77384
   H       -1.58725        -9.46192         3.90476
   H       -1.91661        -5.46680        -0.99389
   H       -4.84397        -6.00081        -3.05608
   H       -2.07130        -4.72225        -3.22449
   H       -6.34634        -4.35036        -3.32647
   H       -5.94734        -5.32182        -4.75656
   H       -8.29914        -4.21723        -4.62574
   H       -8.43430        -1.88731        -5.45398
   H       -6.30782        -0.55425        -5.73352
   H       -6.45242        -1.89536        -6.87777
   H       -4.69591        -0.68476        -7.75870
   H       -3.75079         4.99877        -9.92496
   H       -4.82684         3.81015       -10.72039
   H       -1.77284         3.87641       -10.94649
   H       -2.90240         4.40638       -12.19823
   H       -2.83884         2.70188       -11.73500
   H       -1.77960         2.64291        -5.48968
   H       -2.68776        -0.25855        -3.40968
   H       -0.27123         1.41055        -4.25186
   H        3.77760        -0.62294         0.89406
   H        3.16403         0.95809         0.37385
   H        3.64235        -0.26483        -0.84190
   H       -1.50131        -2.86087        -0.54367
   H        1.02643        -2.64650         1.17821
   H       -0.24379        -3.97123         1.25316
*
