# ORCA input file
# SCF done       -244.971989623031          0.000752174559
! CAM-B3LYP def2-SVP def2/J RIJCOSX Grid4 TightSCF
%maxcore 5000
%tddft
    Mode sTDDFT
    Ethresh 5.0
    maxcore 5000
end

%pal
  nprocs 6
  end
* xyz 0 1
   C       -2.65760        -8.19502         5.42639
   C       -3.44946        -9.33381         5.45433
   F       -4.53538        -9.34715         6.23434
   C       -3.14200       -10.46040         4.69089
   F       -3.93429       -11.53709         4.74916
   C       -2.02415       -10.47405         3.87221
   C       -1.23797        -9.33960         3.84379
   C       -1.53767        -8.20044         4.60968
   C       -0.51935        -7.17981         4.35497
   C       -0.47028        -5.94939         4.95770
   C       -1.41159        -5.49550         5.90691
   N       -2.14050        -5.06714         6.68296
   C        0.51522        -4.96358         4.73962
   N        1.28075        -4.11492         4.62100
   C        0.40236        -7.72358         3.37668
   C       -0.01035        -9.09358         3.05794
   O        0.53286        -9.88337         2.30904
   C        1.46225        -7.04518         2.82521
   C        2.39661        -7.43465         1.85894
   S        2.49009        -8.99100         1.08333
   C        3.83702        -8.47990         0.12347
   C        4.21377        -7.16376         0.40820
   C        3.40879        -6.58016         1.37952
   C        3.63273        -5.19734         1.90570
   C        4.61870        -4.40086         1.04623
   C        3.91893        -3.81651        -0.17348
   F        3.14774        -4.68852        -0.83926
   F        3.11235        -2.80369         0.17457
   F        4.78538        -3.32043        -1.07249
   C        5.82829        -5.27155         0.66749
   O        6.40899        -5.66488         1.89270
   C        7.73456        -6.12589         1.80317
   C        5.38704        -6.46074        -0.19659
   C        4.38425        -9.42125        -0.78805
   C        5.14727        -9.14575        -1.87569
   C        5.66752       -10.17131        -2.71385
   O        5.52162       -11.45078        -2.33790
   C        6.08905       -12.25554        -3.26362
   C        6.61965       -11.47028        -4.29832
   C        6.35709       -10.12407        -3.93367
   C        6.74910        -8.88604        -4.66141
   F        6.46348        -7.75875        -3.99682
   F        8.07455        -8.82422        -4.90441
   F        6.14587        -8.76029        -5.86023
   O        7.22320       -12.05123        -5.34296
   C        7.61219       -11.31372        -6.48843
   C        6.10118       -13.65343        -3.01808
   C        6.65601       -14.56775        -3.84979
   C        6.78207       -15.96772        -3.63499
   S        7.15639       -16.94845        -5.02162
   C        7.12940       -18.40649        -4.07377
   C        6.93965       -18.11411        -2.73210
   C        6.71985       -16.74794        -2.48712
   C        6.40828       -16.21508        -1.12293
   C        6.80084       -17.18182        -0.00009
   C        8.28106       -17.03644         0.32086
   F        9.08093       -17.01836        -0.75352
   F        8.51695       -15.88428         0.97248
   F        8.73721       -18.01812         1.11606
   C        6.41782       -18.63711        -0.35768
   O        5.04680       -18.75030        -0.63742
   C        4.18942       -18.83275         0.47374
   C        7.15737       -19.08909        -1.61559
   C        7.31644       -19.65833        -4.73398
   C        6.64167       -20.81105        -4.48199
   C        5.48733       -20.87949        -3.66276
   C        4.83919       -21.97184        -3.16569
   C        3.80165       -21.75198        -2.12053
   O        3.18401       -20.73759        -1.90300
   C        3.71175       -23.03713        -1.39074
   C        4.50131       -23.99909        -2.04369
   C        4.61251       -25.27642        -1.51780
   C        3.92206       -25.56133        -0.34905
   C        3.12745       -24.60478         0.28431
   C        3.01421       -23.32502        -0.23410
   F        2.47515       -24.92406         1.40846
   F        4.02775       -26.78267         0.18409
   C        5.07267       -23.40049        -3.25445
   C        5.53240       -24.12191        -4.32230
   C        5.82240       -23.59498        -5.59833
   N        6.03014       -23.24649        -6.67198
   C        5.66848       -25.52786        -4.31838
   N        5.81816       -26.66417        -4.36985
   H       -2.94107        -7.35212         6.03476
   H       -1.78280       -11.34149         3.27900
   H        1.60400        -6.03305         3.17688
   H        4.05469        -5.27354         2.91126
   H        2.69416        -4.64272         1.97872
   H        4.97931        -3.54310         1.62295
   H        6.55176        -4.66730         0.09544
   H        8.08006        -6.24393         2.82796
   H        8.37198        -5.40114         1.28421
   H        7.80307        -7.09126         1.29066
   H        6.21944        -7.15938        -0.30043
   H        5.13890        -6.09578        -1.19638
   H        4.11577       -10.45267        -0.60021
   H        5.34885        -8.13061        -2.16092
   H        7.94714       -12.06461        -7.20226
   H        8.43901       -10.63568        -6.27168
   H        6.77334       -10.76199        -6.91591
   H        5.61522       -13.93743        -2.09882
   H        7.04737       -14.21605        -4.79315
   H        5.32861       -16.05142        -1.06202
   H        6.91148       -15.25735        -0.96790
   H        6.28007       -16.89648         0.92091
   H        6.68877       -19.29352         0.48622
   H        3.21984       -19.11212         0.06727
   H        4.10395       -17.87749         1.00383
   H        4.52783       -19.60147         1.17813
   H        6.81095       -20.08573        -1.88003
   H        8.22958       -19.15547        -1.41146
   H        8.04534       -19.66056        -5.53485
   H        6.97614       -21.70245        -4.98724
   H        5.06301       -19.93199        -3.34334
   H        5.21598       -26.04840        -1.96633
   H        2.40180       -22.58406         0.25439
*
