# ORCA input file
# SCF done       -146.653832676248          0.000695416886
! CAM-B3LYP def2-SVP def2/J RIJCOSX Grid4 TightSCF
%maxcore 5000
%tddft
    Mode sTDDFT
    Ethresh 5.0
    maxcore 5000
end

%pal
  nprocs 6
  end
* xyz 0 1
   C       -2.33807         2.45609         0.47194
   S       -3.62780         1.33674        -0.17582
   C       -2.41848         0.06255        -0.69925
   C       -1.06309         0.46046        -0.11679
   C       -1.04802         1.99107        -0.17135
   C        0.13541        -0.11361        -0.89672
   O        1.24363         0.37156        -0.79602
   N       -0.07528        -1.26619        -1.56040
   N       -0.95031        -0.05779         1.24554
   C       -0.04035         0.45337         2.14340
   C        0.64518        -0.28850         3.02184
   C        1.49949         0.22919         4.07172
   C        1.71662        -0.50025         5.20470
   F        1.23013        -1.72481         5.44387
   S        2.66108         0.27381         6.43224
   C        2.77942         1.63973         5.37614
   F        3.48413         2.70313         5.77661
   C        2.16797         1.50772         4.16254
   C        2.27444         2.55458         3.16596
   C        2.35015         2.34829         1.83925
   C        2.39891         3.36626         0.83990
   N        2.34358         3.00583        -0.48898
   C        2.30297         4.13413        -1.23846
   C        2.20123         4.62054        -2.54190
   C        2.19884         6.01216        -2.43830
   N        2.29759         6.37494        -1.10843
   C        2.36702         5.24230        -0.35858
   C        2.42631         4.75871         0.94854
   C        2.01967         6.93094        -3.50924
   C        1.86924         8.26543        -3.39793
   C        1.60334         9.15745        -4.50540
   C        2.06230        10.44348        -4.51313
   F        2.76215        11.02313        -3.53213
   S        1.72499        11.35139        -5.95007
   C        0.91913         9.94844        -6.56456
   F        0.33622        10.01415        -7.76359
   C        0.89064         8.87279        -5.72816
   C        0.15529         7.66835        -6.08014
   C       -0.48273         6.88315        -5.21562
   C       -1.18374         5.63053        -5.60924
   S        0.00292         4.42635        -6.37896
   C       -0.73066         2.98355        -5.54050
   C       -2.05134         3.43775        -4.91858
   C       -1.77197         4.86677        -4.43255
   C       -2.39680         2.53183        -3.71319
   O       -1.63641         1.67383        -3.30232
   N       -3.58439         2.77887        -3.14514
   N       -3.08722         3.39553        -5.93192
   C       -4.31576         4.01039        -5.82124
   C       -5.42782         3.57196        -6.40183
   H       -2.31747         2.34580         1.55576
   H       -2.60183         3.47800         0.21003
   H       -2.38586         0.08715        -1.78873
   H       -2.77436        -0.90104        -0.33758
   H       -1.02276         2.27095        -1.22571
   H       -0.17467         2.42056         0.31343
   H       -0.99459        -1.61343        -1.76472
   H        0.70020        -1.65071        -2.07765
   H       -0.99828        -1.07060         1.27003
   H        0.04526         1.52643         2.15283
   H        0.50896        -1.36278         3.03649
   H        2.36523         3.55675         3.56159
   H        2.33491         1.33656         1.45619
   H        2.22243         2.05277        -0.80040
   H        2.13159         4.06735        -3.45724
   H        2.36477         7.31985        -0.77504
   H        2.48651         5.31963         1.85905
   H        1.96335         6.47271        -4.48590
   H        1.99777         8.76037        -2.44431
   H        0.11091         7.44671        -7.13879
   H       -0.46603         7.10641        -4.15904
   H       -1.94227         5.81992        -6.37408
   H       -0.04851         2.63703        -4.76405
   H       -0.86916         2.18988        -6.27271
   H       -1.03268         4.81453        -3.62857
   H       -2.66044         5.36484        -4.04554
   H       -4.24313         3.41959        -3.55448
   H       -3.86019         2.25095        -2.32020
   H       -3.12716         2.51074        -6.42050
   H       -4.31297         4.95046        -5.28613
   H       -5.45073         2.65133        -6.95903
   H       -6.33748         4.13975        -6.36228
*
