# ORCA input file
# SCF done       -160.004662217372          0.000895707831
! CAM-B3LYP def2-SVP def2/J RIJCOSX Grid4 TightSCF
%maxcore 5000
%tddft
    Mode sTDDFT
    Ethresh 5.0
    maxcore 5000
end

%pal
  nprocs 6
  end
* xyz 0 1
   C        5.36557        -1.53671        -7.92713
   C        4.71320        -1.30726        -6.74749
   C        4.71953         0.00278        -6.02421
   C        5.76899        -0.00156        -4.91128
   C        4.07631        -2.46600        -6.26667
   C        4.24140        -3.56890        -7.07669
   S        5.21234        -3.15418        -8.46862
   C        3.76295        -4.89733        -6.93313
   C        2.99680        -5.34318        -5.90313
   C        2.53157        -6.67025        -5.75598
   C        1.76045        -7.13870        -4.70943
   C        1.50460        -8.52019        -4.89527
   C        2.17841        -8.86603        -6.15033
   C        2.78594        -7.78845        -6.66859
   F        2.16836       -10.09798        -6.68100
   C        0.79507        -9.38386        -4.08228
   C        0.57059       -10.77105        -4.25259
   C       -0.16839       -11.25328        -3.18148
   C       -0.44660       -10.12977        -2.28546
   C        0.12363        -9.04217        -2.82668
   F        0.09867        -7.80385        -2.31403
   C       -0.55009       -12.59306        -2.99861
   C       -1.22285       -13.06892        -1.90478
   C       -1.58969       -14.39885        -1.66239
   S       -2.31215       -14.78191        -0.11638
   C       -2.43600       -16.49007        -0.46188
   C       -1.94683       -16.72188        -1.74399
   C       -1.47541       -15.57211        -2.43107
   C       -1.02078       -15.89353        -3.72861
   C       -1.13631       -17.22609        -4.00431
   C       -0.77926       -17.93298        -5.23345
   O       -0.91657       -19.11989        -5.40109
   O       -0.27781       -17.09780        -6.15875
   C        0.09411       -17.70070        -7.38951
   S       -1.80711       -18.16060        -2.69437
   C       -2.94924       -17.38663         0.48958
   C       -3.42856       -17.06454         1.74902
   C       -3.82510       -18.25109         2.40960
   C       -3.55638       -19.32864         1.45595
   C       -3.04516       -18.83399         0.31636
   F       -3.80437       -20.61942         1.70982
   C       -4.34856       -18.39211         3.68205
   C       -4.69829       -19.57885         4.36857
   C       -5.17705       -19.25724         5.62650
   C       -5.14639       -17.79806         5.76348
   C       -4.65290       -17.30520         4.61805
   F       -4.46279       -16.00830         4.33590
   C       -5.60371       -20.17930         6.60412
   C       -6.08875       -19.85006         7.83325
   C       -6.49820       -20.78366         8.81087
   C       -6.99941       -20.51930        10.08311
   C       -7.16758       -19.14609        10.65388
   C       -5.84633       -18.62227        11.22240
   C       -7.29188       -21.68464        10.79690
   C       -7.03739       -22.85048        10.10709
   S       -6.41353       -22.50338         8.52699
   C       -7.21542       -24.21671        10.51016
   C       -7.68988       -24.61479        11.69012
   H        5.92848        -0.83650        -8.51258
   H        3.73313         0.18162        -5.59137
   H        4.93722         0.80860        -6.72744
   H        5.56803        -0.80112        -4.20189
   H        5.75971         0.94606        -4.37837
   H        6.76155        -0.15559        -5.32869
   H        3.51023        -2.48663        -5.35319
   H        4.04891        -5.58336        -7.71772
   H        2.70851        -4.65528        -5.11977
   H        1.41246        -6.55413        -3.88057
   H        3.35267        -7.74465        -7.57726
   H        0.92892       -11.35798        -5.07545
   H       -1.00556       -10.17396        -1.37202
   H       -0.25434       -13.27633        -3.78030
   H       -1.48484       -12.37431        -1.11859
   H       -0.63342       -15.19962        -4.44976
   H        0.48493       -16.90019        -8.01202
   H       -0.77374       -18.16651        -7.86098
   H        0.85510       -18.46579        -7.22250
   H       -3.48099       -16.07477         2.15898
   H       -2.75381       -19.37866        -0.55940
   H       -4.59968       -20.57137         3.97518
   H       -5.45758       -17.23726         6.62240
   H       -5.52892       -21.22743         6.34024
   H       -6.17597       -18.80865         8.10684
   H       -7.91202       -19.18331        11.45135
   H       -7.53216       -18.46138         9.88575
   H       -5.48600       -19.28168        12.00867
   H       -5.98430       -17.62786        11.64012
   H       -5.08718       -18.57202        10.44518
   H       -7.68536       -21.67309        11.79765
   H       -6.92819       -24.95259         9.77020
   H       -7.98416       -23.91811        12.45613
   H       -7.79347       -25.65894        11.92556
*
