# ORCA input file
# SCF done       -165.325887686654          0.000606892873
! CAM-B3LYP def2-SVP def2/J RIJCOSX Grid4 TightSCF
%maxcore 5000
%tddft
    Mode sTDDFT
    Ethresh 5.0
    maxcore 5000
end

%pal
  nprocs 6
  end
* xyz 0 1
   C        2.75008         4.73258         5.71807
   S        3.31843         5.75924         4.47265
   C        4.08959         4.39509         3.60450
   S        4.84843         4.59571         2.12733
   C        3.88395         3.25684         4.33803
   C        3.11924         3.42587         5.51069
   C        2.79452         2.20566         6.20509
   C        3.19195         1.08329         5.59267
   S        4.30904         1.53058         4.20226
   O        4.00930         0.96605         2.91930
   O        5.63677         1.32133         4.70507
   C        3.07634        -0.28291         6.04521
   C        3.44605        -0.69731         7.29191
   F        3.87854         0.08456         8.27649
   S        3.37395        -2.40920         7.54328
   C        2.80979        -2.57473         5.91791
   F        2.51090        -3.78223         5.43940
   C        2.67263        -1.40065         5.23045
   C        2.18536        -1.30907         3.88189
   C        1.70172        -0.17054         3.35321
   C        1.43733         0.01296         1.96947
   S        1.37884        -1.32758         0.87877
   C        1.34932         1.22195         1.29478
   C        1.44774         2.53383         1.95487
   O        1.50285         2.69584         3.16915
   C        1.49018         3.63006         1.00827
   C        1.64502         4.98295         1.23664
   N        1.65396         5.62536         0.04807
   C        1.90386         7.03433        -0.12336
   C        3.40278         7.30994        -0.21767
   C        1.50963         4.72717        -0.95374
   C        1.39786         3.46796        -0.40428
   C        1.20834         2.18879        -1.06636
   O        1.04701         2.06574        -2.26796
   C        1.24391         1.05719        -0.11564
   C        1.23151        -0.27350        -0.50588
   C        1.15129        -0.81211        -1.82116
   C        1.15803        -2.14564        -2.02705
   C        1.11628        -2.85596        -3.27104
   C        1.12289        -2.29862        -4.52036
   F        1.14150        -1.00562        -4.81630
   S        1.12208        -3.43367        -5.82877
   C        1.11511        -4.70939        -4.66951
   F        1.09985        -5.96267        -5.11621
   C        1.10392        -4.30747        -3.35598
   C        1.06830        -5.15911        -2.20658
   C        1.13624        -6.51400        -2.19672
   C        1.09038        -7.32010        -1.03289
   S        0.80280        -9.02806        -1.25113
   C        0.78915        -9.34007         0.50065
   S        0.52878       -10.84608         1.15619
   C        1.02964        -8.14487         1.14862
   C        1.21179        -7.02465         0.33655
   C        1.54231        -5.82082         1.07879
   C        1.56856        -5.96461         2.40144
   S        1.18213        -7.66118         2.86870
   O       -0.08816        -7.73285         3.52717
   O        2.31216        -8.28623         3.48655
   H        2.16624         5.13852         6.52066
   H        2.21029         2.22531         7.11224
   H        2.25326        -2.20827         3.28297
   H        1.58482         0.71393         3.96153
   H        1.73184         5.51383         2.16382
   H        1.47827         7.56805         0.73020
   H        1.39983         7.36842        -1.03396
   H        3.91019         6.95108         0.67445
   H        3.57855         8.37680        -0.31911
   H        3.82765         6.80088        -1.07900
   H        1.49243         5.01851        -1.98515
   H        1.09053        -0.08962        -2.62205
   H        1.21395        -2.76816        -1.14470
   H        0.94430        -4.65284        -1.26406
   H        1.19144        -7.06387        -3.12487
   H        1.77969        -4.89472         0.58048
   H        1.79944        -5.22509         3.14181
*
