# ORCA input file
# SCF done       -196.389404206138          0.000237471826
! CAM-B3LYP def2-SVP def2/J RIJCOSX Grid4 TightSCF
%maxcore 5000
%tddft
    Mode sTDDFT
    Ethresh 5.0
    maxcore 5000
end

%pal
  nprocs 6
  end
* xyz 0 1
   C        1.37377         9.00147         4.08425
   C        1.27989         9.21467         2.71260
   C        0.52905         8.32163         1.87624
   N        0.49825         8.52593         0.54227
   C        1.07411         9.58991         0.06587
   C        1.73634        10.51775         0.90257
   N        1.86448        10.31781         2.18005
   C       -0.18042         7.24143         2.44735
   C        0.03124         6.97126         3.82228
   C        0.78037         7.87480         4.64400
   N        0.87062         7.66924         5.98192
   C        0.28528         6.61910         6.47602
   C       -0.38798         5.68596         5.65441
   N       -0.51632         5.86274         4.37051
   C       -1.22684         6.51045         1.78825
   C       -1.83848         6.89380         0.64859
   C       -3.08868         6.41407         0.10954
   C       -3.60874         7.14748        -0.97671
   C       -4.87749         6.88727        -1.42896
   C       -5.67413         5.91439        -0.81213
   C       -6.98783         5.89402        -1.49262
   O       -7.95655         5.20860        -1.27866
   N       -6.89908         6.85728        -2.48822
   C       -5.66908         7.50134        -2.52102
   O       -5.36442         8.36508        -3.30375
   C       -7.99498         7.18974        -3.37236
   C       -8.90493         8.24391        -2.75108
   C       -5.18297         5.16708         0.23274
   C       -3.87513         5.38702         0.68148
   C       -3.39033         4.49066         1.72831
   C       -4.01879         4.32491         2.90211
   C       -3.66792         3.33694         3.88055
   S       -2.94832         1.85254         3.33474
   C       -3.16042         1.10533         4.84525
   C       -3.74898         1.94896         5.76199
   C       -3.98729         3.26752         5.23422
   C       -4.46744         4.29397         6.11260
   C       -4.94036         3.88435         7.35869
   C       -4.81459         2.55047         7.81161
   C       -4.17157         1.61176         7.06736
   O       -5.46556         4.81443         8.20518
   C       -4.28952         5.71888         5.93999
   C       -3.44783         6.34253         5.09554
   C       -2.97045         7.70552         5.23113
   C       -2.66090         8.42755         4.06773
   C       -2.07664         9.66554         4.18457
   C       -1.82049        10.22613         5.44429
   C       -1.14855        11.52657         5.23783
   O       -0.76377        12.33424         6.04414
   N       -1.01753        11.65928         3.85909
   C       -1.54690        10.59072         3.15792
   O       -1.52749        10.46968         1.95520
   C       -0.36870        12.79444         3.23760
   C       -1.36912        13.67504         2.49915
   C       -2.13072         9.54960         6.59779
   C       -2.68684         8.26435         6.50236
   C       -2.85159         7.46127         7.69044
   C       -3.19608         7.90798         8.91230
   C       -3.43204         7.05855        10.04378
   C       -3.10543         5.68335        10.09893
   C       -3.62505         4.85474        11.14733
   N       -3.38428         3.52102        11.13083
   C       -2.65266         3.02891        10.17472
   C       -2.07642         3.85702         9.18901
   N       -2.29669         5.13975         9.16201
   C       -4.41243         5.37761        12.19732
   C       -4.59070         6.77717        12.23083
   C       -4.12176         7.59942        11.15535
   N       -4.35704         8.93099        11.17217
   C       -4.99754         9.43841        12.18417
   C       -5.41215         8.63669        13.27000
   N       -5.20842         7.35229        13.28790
   C       -4.97746         4.45387        13.15643
   C       -5.94725         4.70767        14.03320
   H        1.87568         9.71911         4.71258
   H        1.04884         9.71957        -1.00769
   H        2.19423        11.41147         0.49882
   H        0.34916         6.47736         7.54610
   H       -0.81909         4.78261         6.06512
   H       -1.60335         5.68599         2.37488
   H       -1.42353         7.74644         0.12887
   H       -3.01536         7.92445        -1.43409
   H       -8.55454         6.27063        -3.56326
   H       -7.56014         7.56181        -4.30315
   H       -9.32630         7.87281        -1.81958
   H       -9.71674         8.47874        -3.43364
   H       -8.34299         9.15284        -2.54840
   H       -5.78666         4.39842         0.69113
   H       -2.51088         3.90307         1.49397
   H       -4.86194         4.95546         3.15434
   H       -2.88057         0.08039         4.98537
   H       -5.18697         2.30770         8.79871
   H       -4.00209         0.61434         7.44138
   H       -5.75936         4.38485         9.01804
   H       -4.79759         6.30935         6.69069
   H       -2.99719         5.80163         4.27774
   H       -2.87356         8.00651         3.09689
   H        0.39103        12.41750         2.54745
   H        0.11753        13.34975         4.04318
   H       -1.85931        13.10524         1.71351
   H       -0.85323        14.51950         2.05088
   H       -2.12374        14.05011         3.18696
   H       -1.89568         9.96911         7.56313
   H       -2.69487         6.40019         7.56263
   H       -3.43980         8.94857         9.07665
   H       -2.48191         1.96074        10.18896
   H       -1.41073         3.45782         8.43509
   H       -5.16616        10.50678        12.17041
   H       -5.89029         9.06645        14.14027
   H       -4.55517         3.45950        13.09072
   H       -6.41411         5.67337        14.10404
   H       -6.28964         3.94372        14.71100
*
