# ORCA input file
# SCF done       -179.295266190877          0.000368622657
! CAM-B3LYP def2-SVP def2/J RIJCOSX Grid4 TightSCF
%maxcore 5000
%tddft
    Mode sTDDFT
    Ethresh 5.0
    maxcore 5000
end

%pal
  nprocs 6
  end
* xyz 0 1
   C       -5.47207         2.51601         0.16421
   C       -5.02093         2.19201        -1.11190
   C       -3.98632         2.95655        -1.75032
   N       -3.57343         2.60554        -2.98635
   C       -4.13804         1.58145        -3.56534
   C       -5.16036         0.83840        -2.93802
   N       -5.58687         1.13346        -1.74538
   C       -3.40037         4.06847        -1.08661
   C       -3.87598         4.37177         0.22050
   C       -4.91057         3.59740         0.83553
   N       -5.36013         3.91154         2.07756
   C       -4.81652         4.93032         2.67648
   C       -3.78930         5.69121         2.07415
   N       -3.33645         5.41715         0.88260
   C       -2.38462         4.90621        -1.62103
   C       -1.82023         4.83534        -2.85951
   C       -0.82954         5.71765        -3.31787
   C       -0.22599         5.73006        -4.59475
   C        0.72932         6.77353        -4.74878
   C        1.41376         6.91338        -5.96769
   C        1.15102         6.04159        -6.99033
   C        0.20823         5.01168        -6.83796
   C       -0.47517         4.85120        -5.66263
   C        0.87023         7.56303        -3.58515
   S       -0.18681         6.99254        -2.33011
   C        1.71951         8.66157        -3.40301
   C        1.86516         9.34861        -2.22919
   C        2.73175        10.45395        -2.10640
   O        3.38188        10.89122        -3.20369
   C        4.16198        11.94206        -2.86237
   C        4.02349        12.20081        -1.48753
   C        3.09831        11.24953        -1.00277
   C        2.59249        11.09094         0.38516
   F        1.69695        10.10892         0.53001
   F        3.57205        10.81518         1.27561
   F        1.98133        12.20198         0.85304
   O        4.72722        13.20608        -0.94548
   C        4.64605        13.51032         0.43344
   C        4.94926        12.63669        -3.79973
   C        4.91983        12.37852        -5.13980
   C        5.64389        13.03037        -6.15355
   C        6.77825        13.87190        -6.12308
   C        7.10408        14.39725        -7.40814
   C        8.20186        15.26181        -7.55475
   C        8.96720        15.57083        -6.46308
   C        8.67949        15.01520        -5.20641
   C        7.61009        14.17815        -5.03097
   C        6.24348        13.94803        -8.43421
   S        5.06510        12.85276        -7.78432
   C        6.27281        14.31405        -9.78678
   C        5.39150        13.85067       -10.71998
   C        5.33634        14.18986       -12.09513
   C        6.23800        15.05642       -12.76952
   C        6.03055        15.39968       -14.14461
   N        6.89336        16.23790       -14.76536
   C        7.89692        16.71769       -14.08900
   C        8.10567        16.37341       -12.74066
   N        7.29967        15.56390       -12.10997
   C        4.93587        14.90210       -14.89173
   C        4.08241        13.97923       -14.24694
   C        4.27866        13.63553       -12.87139
   N        3.44080        12.76914       -12.26543
   C        2.46194        12.25656       -12.95808
   C        2.28461        12.57032       -14.31905
   N        3.07408        13.40024       -14.93858
   C        4.77428        15.37283       -16.24803
   C        3.71536        15.20644       -17.04042
   H       -6.25323         1.93470         0.62503
   H       -3.78076         1.32652        -4.55475
   H       -5.62432        -0.00701        -3.42886
   H       -5.18765         5.17117         3.66412
   H       -3.33792         6.53282         2.58248
   H       -2.05614         5.68613        -0.94443
   H       -2.15178         4.06579        -3.53989
   H        2.14075         7.70086        -6.09194
   H        1.67383         6.14090        -7.92978
   H        0.02572         4.34072        -7.66394
   H       -1.19807         4.05885        -5.54795
   H        2.30397         8.97425        -4.25665
   H        1.30931         9.03482        -1.36172
   H        5.33376        14.34225         0.57739
   H        4.96631        12.66980         1.05195
   H        3.64047        13.82459         0.71905
   H        5.53903        13.43514        -3.38229
   H        4.21303        11.63240        -5.48105
   H        8.43918        15.66486        -8.52680
   H        9.81442        16.23222        -6.56560
   H        9.32059        15.24816        -4.36933
   H        7.42516        13.73334        -4.06763
   H        7.03585        15.01231       -10.09440
   H        4.62198        13.15623       -10.40442
   H        8.56870        17.38151       -14.61719
   H        8.94960        16.75401       -12.18011
   H        1.80914        11.56558       -12.44132
   H        1.49490        12.12043       -14.90688
   H        5.62259        15.94546       -16.59978
   H        2.84063        14.67099       -16.71969
   H        3.71138        15.60832       -18.04006
*
