# ORCA input file
# SCF done       -183.188125704447          0.000556916385
! CAM-B3LYP def2-SVP def2/J RIJCOSX Grid4 TightSCF
%maxcore 5000
%tddft
    Mode sTDDFT
    Ethresh 5.0
    maxcore 5000
end

%pal
  nprocs 6
  end
* xyz 0 1
   C       -3.37310        -5.98141        -2.55886
   C       -2.25546        -5.61925        -3.26525
   C       -2.30739        -4.92759        -4.48731
   N       -2.33930        -4.31253        -5.45705
   C       -0.95554        -5.99076        -2.86009
   N        0.08560        -6.38557        -2.58619
   C       -4.74392        -6.00002        -3.05793
   C       -5.54185        -6.76834        -2.18813
   C       -6.88221        -6.98358        -2.43306
   C       -7.45091        -6.40971        -3.56501
   C       -6.66354        -5.64240        -4.43367
   C       -5.30995        -5.44180        -4.19493
  Cl       -7.38626        -4.91185        -5.81399
  Cl       -9.11248        -6.63077        -3.89246
   C       -4.71992        -7.24653        -1.05501
   O       -5.04780        -7.96721        -0.14664
   C       -3.38860        -6.59212        -1.24300
   C       -2.51445        -6.56169        -0.20968
   C       -1.33530        -5.76706        -0.00881
   C       -0.27434        -6.25807         0.71088
   F       -0.20842        -7.47151         1.24213
   S        1.08078        -5.20700         0.81756
   C        0.17640        -4.02557        -0.06924
   F        0.72875        -2.83006        -0.25132
   C       -1.07402        -4.41701        -0.45717
   C       -2.04563        -3.59223        -1.13902
   C       -1.72018        -2.52123        -1.88721
   C       -2.58275        -1.67959        -2.65565
   S       -1.78927        -0.48344        -3.64165
   C       -3.29398         0.00805        -4.34860
   C       -4.34942        -0.69233        -3.81434
   C       -3.95132        -1.64157        -2.84589
   C       -4.93537        -2.51221        -2.12740
   C       -6.39090        -2.11979        -2.42840
   C       -7.24839        -3.21024        -2.02726
   N       -7.88076        -4.11016        -1.71843
   C       -6.55358        -1.81762        -3.93165
   C       -7.94914        -1.65382        -4.27059
   N       -9.05022        -1.50548        -4.53391
   C       -5.77219        -0.53838        -4.25450
   C       -3.33319         1.07108        -5.33762
   C       -4.16166         2.14924        -5.24996
   F       -5.06646         2.36816        -4.29642
   S       -3.94060         3.35110        -6.47903
   C       -2.65608         2.38550        -7.11646
   F       -2.01810         2.80017        -8.20180
   C       -2.43859         1.20294        -6.46379
   C       -1.43022         0.25240        -6.86189
   C       -1.55306        -1.07644        -6.65385
   C       -0.53255        -2.06073        -6.76315
   C        0.69313        -2.04225        -7.35658
   C        1.67218        -3.10397        -7.17175
   C        1.76480        -3.90501        -6.06577
   C        2.74587        -4.90727        -5.90503
   N        3.52126        -5.73698        -5.74438
   C        0.95026        -3.76135        -4.92269
   N        0.35672        -3.65737        -3.94490
   C        2.61736        -3.03389        -8.27688
   C        2.34610        -1.87101        -9.02034
   C        1.19067        -1.15189        -8.43640
   O        0.75121        -0.08680        -8.80432
   C        3.09855        -1.52556       -10.12445
   C        4.14132        -2.36380       -10.49987
   C        4.41312        -3.52704        -9.76783
   C        3.65788        -3.86806        -8.65133
  Cl        5.69853        -4.55610       -10.25077
  Cl        5.09887        -1.97030       -11.86813
   H       -7.47656        -7.57462        -1.75502
   H       -4.72975        -4.85676        -4.89063
   H       -2.75762        -7.23405         0.60884
   H       -3.06854        -3.91002        -1.01288
   H       -0.67385        -2.27903        -2.00509
   H       -4.76490        -2.45349        -1.04897
   H       -4.78741        -3.55293        -2.43375
   H       -6.67194        -1.22728        -1.85634
   H       -6.15673        -2.65683        -4.51563
   H       -6.23757         0.30795        -3.73921
   H       -5.81296        -0.32983        -5.32663
   H       -0.55453         0.65865        -7.34736
   H       -2.48337        -1.45668        -6.25271
   H       -0.79441        -2.98105        -6.25026
   H        2.88052        -0.62715       -10.68011
   H        3.88934        -4.77135        -8.11043
*
