# ORCA input file
# SCF done       -167.391071032151          0.000273262116
! CAM-B3LYP def2-SVP def2/J RIJCOSX Grid4 TightSCF
%maxcore 5000
%tddft
    Mode sTDDFT
    Ethresh 5.0
    maxcore 5000
end

%pal
  nprocs 6
  end
* xyz 0 1
   C        2.69432        -0.60623        -0.65850
   C        1.78151        -0.95813         0.32692
   N        1.18228        -2.13383         0.32954
   C        1.48787        -2.99808        -0.64326
   C        2.45627        -2.65011        -1.59536
   N        3.03936        -1.46667        -1.60626
   C        0.79600        -4.28648        -0.63037
   C        0.22603        -4.72995         0.56923
   C       -0.41973        -5.94131         0.60036
   C       -0.51486        -6.73083        -0.55880
   C        0.03510        -6.29016        -1.75337
   C        0.68690        -5.07153        -1.78053
   C       -1.23981        -7.94059        -0.23354
   C       -1.59997        -7.89472         1.12518
   C       -1.09569        -6.62267         1.76671
   C       -2.25041        -5.77029         2.32365
   C       -3.29457        -5.42826         1.26784
   C       -0.08941        -6.92594         2.89302
   C        1.09289        -7.76375         2.42099
   C       -2.30841        -8.91901         1.69996
   C       -2.67263       -10.03427         0.92569
   C       -2.28650       -10.07094        -0.42425
   C       -1.58455        -9.03838        -1.00955
   C       -3.41925       -11.14047         1.45863
   C       -4.03750       -11.18875         2.66390
   C       -4.76128       -12.29916         3.14802
   S       -4.86688       -13.79213         2.27254
   C       -5.88697       -14.55599         3.46608
   C       -6.10786       -13.66839         4.54603
   C       -5.48006       -12.39775         4.35263
   C       -5.60956       -11.39140         5.32779
   C       -6.31876       -11.65223         6.46459
   F       -6.45177       -10.69887         7.40531
   C       -6.90156       -12.91626         6.67690
   F       -7.56461       -13.14761         7.82558
   C       -6.79982       -13.91147         5.74391
   C       -6.31435       -15.85820         3.19195
   C       -7.27868       -16.59655         3.84067
   C       -7.59507       -17.90605         3.49840
   C       -8.58038       -18.65258         4.12094
   C       -8.94160       -19.98558         3.84959
   C       -9.95715       -20.46422         4.63269
   C      -10.45070       -19.52902         5.55787
   S       -9.58081       -18.01782         5.41327
   C      -11.47850       -19.69117         6.47678
   C      -12.25912       -20.83982         6.71036
   C      -13.20552       -20.67375         7.67914
   C      -13.23072       -19.38632         8.26593
   S      -11.98071       -18.39340         7.53002
   C      -14.10581       -18.98401         9.24632
   C      -14.22398       -17.73537         9.88378
   C      -15.18794       -17.44252        10.86067
   C      -15.02516       -16.10404        11.27740
   C      -15.70795       -15.33478        12.19848
   C      -15.28828       -14.01090        12.38148
   C      -15.75697       -13.00110        13.21417
   C      -14.96880       -11.82835        13.01249
   C      -14.01062       -12.11391        12.05298
   C      -14.17078       -13.46679        11.62814
   C      -13.48865       -14.22424        10.71277
   C      -13.90943       -15.55750        10.52324
   C      -13.43610       -16.55032         9.68711
   C      -15.12075       -10.55648        13.67701
   C      -16.03680       -10.26784        14.59762
   H        3.16781         0.36471        -0.69210
   H        1.51671        -0.28547         1.13215
   H        2.78676        -3.34167        -2.35779
   H        0.31201        -4.10518         1.44457
   H       -0.04681        -6.88479        -2.65099
   H        1.09638        -4.71487        -2.71363
   H       -1.83564        -4.84751         2.73409
   H       -2.72618        -6.31613         3.14140
   H       -2.84492        -4.86481         0.45342
   H       -4.08688        -4.82602         1.70661
   H       -3.73690        -6.33320         0.85643
   H       -0.60987        -7.45450         3.69463
   H        0.27556        -5.97971         3.29765
   H        0.75490        -8.72246         2.03349
   H        1.77515        -7.94768         3.24789
   H        1.63809        -7.24845         1.63320
   H       -2.57169        -8.87660         2.74575
   H       -2.56052       -10.93261        -1.01638
   H       -1.30615        -9.08640        -2.05195
   H       -3.50634       -12.00595         0.81231
   H       -4.00864       -10.33077         3.31941
   H       -5.15784       -10.42223         5.19632
   H       -7.23824       -14.86832         5.96510
   H       -5.84165       -16.32117         2.33309
   H       -7.85549       -16.15548         4.63893
   H       -7.03954       -18.38910         2.70513
   H       -8.44424       -20.55807         3.08643
   H      -10.35659       -21.45993         4.55963
   H      -12.10674       -21.75345         6.16441
   H      -13.89264       -21.44107         7.99072
   H      -14.81319       -19.73941         9.56980
   H      -15.93073       -18.12639        11.22894
   H      -16.53930       -15.73440        12.76226
   H      -16.57966       -13.08830        13.89990
   H      -13.26416       -11.43519        11.68241
   H      -12.65597       -13.82822        10.14892
   H      -12.61311       -16.45314         9.00435
   H      -14.41013        -9.79725        13.37405
   H      -16.76378       -10.98849        14.93097
   H      -16.09103        -9.29383        15.05221
*
