# ORCA input file
# SCF done       -164.141413264496          0.000759976484
! CAM-B3LYP def2-SVP def2/J RIJCOSX Grid4 TightSCF
%maxcore 5000
%tddft
    Mode sTDDFT
    Ethresh 5.0
    maxcore 5000
end

%pal
  nprocs 6
  end
* xyz 0 1
   C       -2.89836         1.56996        -5.15881
   C       -1.61854         1.35553        -4.70783
   C       -0.71433         0.45296        -5.30068
   N        0.06562        -0.26216        -5.74789
   C       -1.05595         1.96725        -3.56860
   N       -0.53920         2.38980        -2.63397
   C       -3.55012         0.84406        -6.24502
   C       -4.90247         1.25627        -6.31323
   C       -5.78817         0.73844        -7.22502
   C       -5.31899        -0.24043        -8.10838
   C       -3.96475        -0.63999        -8.03756
   C       -3.06618        -0.11120        -7.11815
   S       -3.59312        -1.85357        -9.22607
   C       -5.24274        -1.81121        -9.78863
   C       -6.03169        -0.93355        -9.12567
  Br       -5.77154        -2.93334       -11.19705
   C       -5.15023         2.30260        -5.29656
   O       -6.16212         2.96512        -5.19194
   C       -3.87119         2.45749        -4.57058
   C       -3.62209         3.42211        -3.62601
   C       -4.59700         4.07547        -2.84350
   C       -4.34261         5.37038        -2.31665
   C       -5.31005         6.09944        -1.53925
   N       -5.02142         7.32543        -1.10580
   C       -3.85048         7.86138        -1.39623
   C       -2.89727         7.14285        -2.17316
   N       -3.16134         5.93473        -2.61337
   C       -1.64759         7.73774        -2.48443
   N       -0.65509         8.25968        -2.71695
   C       -3.56574         9.16283        -0.91997
   N       -3.31939        10.21575        -0.53954
   C       -6.59108         5.53621        -1.22265
   C       -6.79510         4.19959        -1.68117
   C       -5.82311         3.47885        -2.45814
   N       -6.20158         2.22620        -2.68846
   S       -7.65955         1.99594        -2.05017
   N       -7.86788         3.46225        -1.41441
   C       -7.62407         6.13886        -0.50734
   C       -7.65516         7.39947         0.07424
   C       -8.70871         7.92868         0.79932
   C       -9.96084         7.37654         1.09048
   C      -10.94723         7.99438         1.87897
   C      -12.10259         7.26356         2.02814
   C      -12.07244         6.03988         1.35263
   S      -10.54582         5.83501         0.53260
   C      -13.03910         5.03655         1.25380
   C      -14.31834         4.96121         1.82617
   C      -14.99546         3.81596         1.49838
   C      -14.28572         2.93880         0.65122
   S      -12.71302         3.62556         0.29436
   C      -14.74789         1.73414         0.15955
   C      -14.10272         0.83648        -0.70113
   C      -14.68997        -0.36182        -1.17536
   C      -13.78500        -1.00537        -2.02817
   C      -13.87072        -2.19040        -2.75193
   C      -12.77512        -2.55472        -3.52654
   C      -12.54983        -3.66107        -4.35546
   C      -11.25753        -3.55536        -4.92568
   C      -10.67033        -2.38046        -4.45361
   C      -11.57797        -1.72864        -3.57996
   C      -11.48181        -0.55784        -2.86603
   C      -12.58724        -0.18260        -2.08259
   C      -12.79406         0.92392        -1.27585
   C      -10.62462        -4.47845        -5.83740
   C      -11.15894        -5.61283        -6.28211
   H       -6.81294         1.07448        -7.25543
   H       -2.04151        -0.44340        -7.10731
   H       -7.07241        -0.77781        -9.34465
   H       -2.60414         3.75637        -3.46740
   H       -8.48512         5.49395        -0.40394
   H       -6.77652         8.01861        -0.03208
   H       -8.55847         8.91743         1.21585
   H      -10.78849         8.96088         2.32394
   H      -12.95268         7.58901         2.60031
   H      -14.71043         5.73736         2.45816
   H      -15.98799         3.58365         1.84260
   H      -15.74698         1.45541         0.47397
   H      -15.67404        -0.71077        -0.92118
   H      -14.75823        -2.80587        -2.71482
   H      -13.24847        -4.45826        -4.52917
   H       -9.68886        -2.02280        -4.70672
   H      -10.59673         0.06142        -2.90043
   H      -12.08136         1.70954        -1.11507
   H       -9.63350        -4.18929        -6.16357
   H      -12.14110        -5.94076        -5.98706
   H      -10.62829        -6.25378        -6.96419
*
