# ORCA input file
# SCF done       -174.283147514910          0.000782511586
! CAM-B3LYP def2-SVP def2/J RIJCOSX Grid4 TightSCF
%maxcore 5000
%tddft
    Mode sTDDFT
    Ethresh 5.0
    maxcore 5000
end

%pal
  nprocs 6
  end
* xyz 0 1
   C       -0.40856         1.22480         1.69661
   C       -0.41327         0.52065         2.87562
   C        0.74607         0.16805         3.59311
   N        1.65657        -0.13982         4.22178
   C       -1.58244         0.06106         3.51256
   N       -2.50970        -0.32965         4.06631
   C        0.77949         1.71485         0.99965
   C        0.37435         2.38716        -0.18228
   C        1.26686         2.96106        -1.05384
   C        2.62854         2.87265        -0.74382
   C        3.02421         2.20337         0.43759
   C        2.11962         1.61887         1.31808
   S        4.75038         2.21562         0.63069
   C        4.91505         3.10766        -0.85841
   C        3.73882         3.38292        -1.47039
  Br        6.62251         3.59431        -1.46377
   C       -1.09081         2.35113        -0.26652
   O       -1.79838         2.84044        -1.14307
   C       -1.55288         1.62284         0.91610
   C       -2.89510         1.42695         1.15697
   N       -3.79912         1.90244         0.29374
   C       -5.14645         1.84808         0.38772
   S       -5.94547         1.08044         1.72725
   C       -7.47436         1.53628         1.04143
   N       -8.64061         1.18624         1.72496
   O       -9.70712         1.54121         1.24588
   O       -8.51799         0.55099         2.75706
   C       -7.36687         2.22352        -0.13794
   C       -6.03159         2.41926        -0.54521
   C       -5.60665         3.11157        -1.72255
   C       -6.45805         3.77760        -2.54182
   C       -6.11874         4.49670        -3.70703
   S       -7.37379         5.41113        -4.49358
   C       -6.28780         6.01237        -5.71438
   C       -4.99838         5.50175        -5.49536
   C       -4.90545         4.65891        -4.38137
   O       -3.78096         4.07110        -3.89665
   S       -2.56366         3.67026        -4.95891
   C       -2.26959         5.34029        -5.59152
   S       -3.68182         5.91806        -6.58741
   C       -6.68478         6.89116        -6.72347
   C       -7.95390         7.41265        -6.87726
   C       -8.40848         8.32589        -7.85561
   C       -9.72620         8.67842        -7.73418
   C      -10.37869         8.05838        -6.65583
   S       -9.26608         7.00752        -5.80212
   C      -11.67797         8.13616        -6.17541
   C      -12.79899         8.87064        -6.60691
   C      -13.91498         8.66458        -5.84455
   C      -13.74212         7.75646        -4.77152
   S      -12.08468         7.18219        -4.77400
   C      -14.69191         7.34688        -3.86563
   C      -14.52526         6.42781        -2.80927
   C      -13.36403         5.75777        -2.39027
   C      -13.69024         4.91288        -1.31179
   C      -12.90953         4.04354        -0.57202
   C      -13.53628         3.31296         0.43849
   C      -13.04309         2.36415         1.33185
   C      -14.11074         1.91194         2.16111
   C      -15.26646         2.58174         1.78314
   C      -14.95578         3.46751         0.70711
   C      -15.73335         4.33248        -0.01999
   C      -15.10863         5.06982        -1.04820
   C      -15.59641         5.99306        -1.95709
   C      -13.94216         0.91891         3.19605
   C      -14.90402         0.46515         3.99508
   H        0.92681         3.46253        -1.94634
   H        2.47211         1.11977         2.20510
   H        3.65587         3.92360        -2.39548
   H       -3.26215         0.90385         2.03022
   H       -3.37745         2.39275        -0.51884
   H       -8.23316         2.55878        -0.67715
   H       -4.55362         3.11559        -1.95853
   H       -7.51266         3.80891        -2.30568
   H       -2.10608         6.01660        -4.75480
   H       -1.40794         5.30805        -6.25097
   H       -5.92334         7.19321        -7.43037
   H       -7.74972         8.70027        -8.61934
   H      -10.23148         9.36456        -8.39079
   H      -12.75794         9.52496        -7.45955
   H      -14.86363         9.14000        -6.02498
   H      -15.68327         7.76607        -3.98885
   H      -12.37682         5.85483        -2.79595
   H      -11.85389         3.92400        -0.76702
   H      -12.02437         2.02247         1.38743
   H      -16.24336         2.46514         2.21431
   H      -16.79027         4.45012         0.17556
   H      -16.61329         6.33526        -2.03424
   H      -12.93480         0.53644         3.29765
   H      -15.91937         0.81777         3.92876
   H      -14.70647        -0.27917         4.74665
*
