# ORCA input file
# SCF done       -139.644291107245          0.000721162405
! CAM-B3LYP def2-SVP def2/J RIJCOSX Grid4 TightSCF
%maxcore 5000
%tddft
    Mode sTDDFT
    Ethresh 5.0
    maxcore 5000
end

%pal
  nprocs 6
  end
* xyz 0 1
   C       -1.29951       -11.10117       -11.83001
   C       -0.11468       -10.57283       -11.49248
   C        0.79619        -9.84930       -12.33111
   C        1.92149        -9.43460       -11.70621
   C        1.99480        -9.79088       -10.33204
   S        0.56450       -10.68553        -9.86034
   C        3.00722        -9.50189        -9.44526
   C        4.20315        -8.78731        -9.68760
   C        4.99941        -8.66041        -8.59116
   C        4.48344        -9.26363        -7.41853
   S        2.93879       -10.01302        -7.76671
   C        5.08902        -9.25855        -6.18235
   C        4.61449        -9.82918        -5.00205
   S        3.11830       -10.70095        -4.90162
   C        3.27050       -10.98709        -3.19204
   C        4.48306       -10.45990        -2.71490
   C        5.23736        -9.79636        -3.73171
   C        6.47085        -9.20537        -3.42100
   C        6.95145        -9.29483        -2.14393
   F        8.13299        -8.73111        -1.83166
   C        6.23549        -9.99156        -1.15116
   F        6.76077       -10.09615         0.08420
   C        5.02751       -10.56933        -1.42064
   C        2.19824       -11.65647        -2.55370
   C        1.89773       -11.68007        -1.23247
   C        0.76866       -12.39642        -0.72979
   C        0.32904       -12.42437         0.54108
   C        0.92942       -11.67173         1.68581
   C       -0.89243       -13.22717         0.89539
   N       -2.04125       -12.34273         0.96763
   C       -3.28635       -12.74989         1.30744
   C       -3.60701       -13.96476         1.82551
   C       -4.89649       -14.38922         2.21952
   C       -6.11133       -13.76569         2.12159
   C       -7.34076       -14.32482         2.56167
   C       -8.43469       -13.54672         2.35413
   C       -8.15222       -12.30882         1.72823
   S       -6.43007       -12.17597         1.42447
   C       -9.03392       -11.31306         1.38031
   C      -10.43679       -11.28780         1.57783
   C      -11.04088       -10.16245         1.12442
   C      -10.16166        -9.21368         0.51908
   S       -8.51276        -9.83478         0.58487
   C      -10.52616        -7.98851         0.05723
   C       -9.71493        -6.98349        -0.57153
   C       -8.76603        -7.13773        -1.50778
   C       -8.43789        -8.42221        -2.19449
   C       -8.01300        -5.94464        -2.02746
   N       -8.40822        -5.67263        -3.39800
   C       -7.80998        -4.65291        -4.10636
   C       -6.70325        -3.99365        -3.77989
   H       -1.67544       -11.00915       -12.83360
   H       -1.90740       -11.62791       -11.11775
   H        0.56544        -9.67141       -13.36641
   H        2.71007        -8.87967       -12.18276
   H        4.44109        -8.38650       -10.65640
   H        5.94533        -8.14757        -8.58435
   H        6.03898        -8.74504        -6.12251
   H        7.05141        -8.68864        -4.16738
   H        4.52938       -11.12557        -0.64587
   H        1.51817       -12.15683        -3.23392
   H        2.49608       -11.12429        -0.53038
   H        0.22555       -12.97636        -1.46698
   H        1.55870       -10.85201         1.35513
   H        1.53331       -12.34307         2.29796
   H        0.13889       -11.27174         2.31886
   H       -0.75905       -13.69903         1.87475
   H       -1.06624       -14.01742         0.15213
   H       -1.96104       -11.49240         0.43288
   H       -4.04578       -11.99459         1.17875
   H       -2.82148       -14.69328         1.96441
   H       -4.93894       -15.37825         2.66082
   H       -7.37028       -15.29821         3.02065
   H       -9.43684       -13.82608         2.62599
   H      -10.95348       -12.10356         2.05192
   H      -12.09753        -9.96894         1.19083
   H      -11.55242        -7.69823         0.25472
   H       -9.95706        -5.97032        -0.26406
   H       -9.25766        -9.13170        -2.11779
   H       -7.55061        -8.87874        -1.75461
   H       -8.22704        -8.22381        -3.24401
   H       -6.94111        -6.16913        -2.03533
   H       -8.17588        -5.07000        -1.37868
   H       -9.40218        -5.76636        -3.55202
   H       -8.30416        -4.44923        -5.04857
   H       -6.17461        -4.15625        -2.85882
   H       -6.28433        -3.26774        -4.45192
*
