# ORCA input file
# SCF done       -172.780157388473          0.000544859815
! CAM-B3LYP def2-SVP def2/J RIJCOSX Grid4 TightSCF
%maxcore 5000
%tddft
    Mode sTDDFT
    Ethresh 5.0
    maxcore 5000
end

%pal
  nprocs 6
  end
* xyz 0 1
   C       14.43394        -8.63891       -15.91464
   C       14.61959        -8.15096       -14.67857
   C       14.95303        -6.81011       -14.30215
   C       15.07210        -6.62065       -12.96603
   C       14.84335        -7.78582       -12.18935
   S       14.47160        -9.14444       -13.21927
   C       14.88694        -7.88750       -10.80846
   C       15.16730        -6.86928        -9.87942
   C       15.11835        -7.28645        -8.57604
   C       14.80012        -8.64473        -8.41767
   S       14.56607        -9.39525        -9.97688
   C       14.66845        -9.31857        -7.20572
   C       14.34911       -10.64575        -7.04913
   C       14.20003       -11.26004        -5.80392
   C       13.86954       -12.58964        -5.52760
   C       13.77608       -12.88123        -4.18326
   C       14.02961       -11.78619        -3.35552
   S       14.40096       -10.37412        -4.30904
   C       14.00379       -11.68954        -1.95946
   C       13.72403       -12.65099        -0.98649
   C       13.77114       -12.16158         0.30008
   C       14.08644       -10.79851         0.38883
   S       14.33821       -10.14952        -1.21073
   C       14.17924       -10.02453         1.54489
   C       14.46313        -8.67600         1.59852
   S       14.77733        -7.73773         0.16618
   C       14.99720        -6.24358         1.04849
   C       14.83058        -6.46993         2.43557
   C       14.54010        -7.82872         2.74412
   C       14.36024        -8.21771         4.07246
   C       14.46839        -7.27049         5.06643
   C       14.28388        -7.64690         6.50697
   F       14.07124        -8.95831         6.69125
   F       15.35434        -7.32828         7.25787
   F       13.23713        -7.01265         7.06894
   C       14.75065        -5.92715         4.76957
   C       14.92986        -5.52809         3.47059
   C       15.29498        -5.10209         0.30964
   S       15.48937        -3.47747         0.95137
   C       15.77131        -2.73837        -0.62372
   C       15.77089        -3.75211        -1.59219
   C       15.49331        -5.03587        -1.07492
   N       15.56709        -5.88214        -2.14659
   C       15.90021        -5.09943        -3.21502
   N       16.04185        -3.84043        -2.92553
   C       16.01684        -1.37658        -0.75214
   C       15.87356        -0.68920        -1.94370
   C       16.43702         0.58718        -2.28164
   C       17.32531         1.32231        -1.52798
   C       17.86199         2.56117        -1.92472
   N       18.32385         3.57872        -2.19309
   C       17.82393         0.93427        -0.27002
   N       18.28808         0.67852         0.74992
   C       15.97056         0.94137        -3.62188
   C       15.10656        -0.08022        -4.08251
   C       14.96339        -1.11032        -3.02921
   O       14.15375        -2.01359        -3.02041
   C       14.51644        -0.04903        -5.32042
   C       14.80437         1.03823        -6.15381
   C       15.66517         2.05556        -5.68414
   C       16.25395         2.02926        -4.42462
   S       15.88451         3.30638        -6.87250
   C       14.83457         2.45087        -7.97018
   C       14.34159         1.29195        -7.47479
  Br       14.48985         3.16538        -9.67113
   H       14.53217        -8.00152       -16.77548
   H       14.18421        -9.66999       -16.08449
   H       15.08781        -6.04612       -15.04657
   H       15.31570        -5.67873       -12.50831
   H       15.39483        -5.86308       -10.18077
   H       15.30073        -6.64705        -7.73039
   H       14.82738        -8.72425        -6.31379
   H       14.19346       -11.25966        -7.92675
   H       13.70256       -13.30677        -6.31184
   H       13.52782       -13.85144        -3.79221
   H       13.49151       -13.67123        -1.23357
   H       13.57940       -12.75528         1.17634
   H       13.99800       -10.53661         2.47952
   H       14.14292        -9.24472         4.31929
   H       14.82597        -5.21547         5.57671
   H       15.14800        -4.49812         3.24165
   H       15.40570        -6.87577        -2.15167
   H       16.03690        -5.50503        -4.19823
   H       16.33038        -0.84629         0.13761
   H       13.85995        -0.84253        -5.64113
   H       16.89934         2.83278        -4.11145
   H       13.67892         0.64125        -8.01574
*
