# ORCA input file
# SCF done       -162.127220197023          0.000814880029
! CAM-B3LYP def2-SVP def2/J RIJCOSX Grid4 TightSCF
%maxcore 5000
%tddft
    Mode sTDDFT
    Ethresh 5.0
    maxcore 5000
end

%pal
  nprocs 6
  end
* xyz 0 1
   C        8.47325        -5.33894        -8.20952
   C        8.65740        -4.61863        -7.09451
   C        9.29233        -3.33778        -6.97266
   C        9.33284        -2.85202        -5.71222
   C        8.73805        -3.69868        -4.73601
   S        8.12005        -5.15458        -5.49427
   C        8.62735        -3.46658        -3.38630
   C        9.07878        -2.33774        -2.65832
   C        8.80978        -2.39714        -1.32853
   C        8.12704        -3.57217        -0.91724
   S        7.85140        -4.61175        -2.30441
   C        7.72734        -3.84987         0.36408
   C        7.03606        -4.97572         0.83386
   C        6.61271        -5.17313         2.15018
   C        5.93569        -6.36516         2.31891
   C        5.83512        -7.10707         1.13410
   S        6.57872        -6.32207        -0.20038
   C        5.12007        -8.29123         1.39537
   C        4.74940        -8.31749         2.74439
   C        5.25423        -7.08909         3.44345
   C        4.01600        -9.44252         3.08627
   C        3.81820       -10.29753         2.00947
   S        4.56914        -9.67627         0.54590
   C        3.11495       -11.52404         1.94290
   C        2.41249       -12.07129         2.96822
   C        1.69441       -13.28973         2.90544
   C        1.59348       -14.21712         1.87752
   C        0.77481       -15.28818         2.20586
   C        0.23362       -15.19089         3.49068
   S        0.74702       -13.77228         4.30624
   C       -0.59086       -16.30924         3.73098
   C       -0.57816       -17.13669         2.60443
   C        0.30103       -16.54733         1.53987
   C       -1.37267       -18.26451         2.75034
   C       -2.00850       -18.31182         3.98367
   S       -1.59514       -16.92265         4.97829
   C       -2.90944       -19.26949         4.50643
   C       -3.29338       -20.41487         3.88817
   C       -4.22022       -21.33906         4.42449
   C       -4.62124       -22.54047         3.85575
   C       -5.55898       -23.21107         4.62729
   C       -5.88886       -22.52379         5.79898
   S       -5.03081       -21.04475         5.95671
   C       -6.84936       -23.26454         6.51410
   C       -7.14044       -24.43892         5.80872
   C       -6.33467       -24.49313         4.54322
   C       -8.07969       -25.23511         6.44083
   C       -8.52903       -24.68389         7.63812
   S       -7.74975       -23.13920         7.96808
   C       -9.47282       -25.17689         8.55927
   C      -10.12401       -26.37461         8.46015
   C      -11.06168       -26.82191         9.39945
   C      -11.70815       -28.03141         9.33836
   C      -12.66710       -28.53295        10.25214
   C      -13.13821       -29.77271         9.95136
   C      -12.57785       -30.33262         8.77724
   S      -11.43199       -29.21287         8.06475
   C      -12.83658       -31.56397         8.22299
   C      -13.73287       -32.55760         8.70302
   C      -13.77554       -33.68179         7.95321
   C      -12.90874       -33.66624         6.81049
   S      -12.04297       -32.12219         6.76114
   C      -12.73713       -34.63104         5.89605
   H        8.81766        -4.97424        -9.16109
   H        7.98318        -6.29485        -8.19114
   H        9.68957        -2.83826        -7.83853
   H        9.76987        -1.90724        -5.44079
   H        9.58479        -1.51879        -3.13725
   H        9.07471        -1.63268        -0.61893
   H        7.96116        -3.10309         1.11314
   H        6.80164        -4.45207         2.92531
   H        5.95021        -7.33763         4.24778
   H        4.44200        -6.50064         3.87515
   H        3.63782        -9.64721         4.07100
   H        3.14138       -12.02951         0.98794
   H        2.36497       -11.55051         3.91436
   H        2.10344       -14.10464         0.93839
   H       -0.25320       -16.34029         0.62206
   H        1.13202       -17.20882         1.28564
   H       -1.50123       -19.02163         1.99867
   H       -3.31647       -19.05142         5.48579
   H       -2.88357       -20.67326         2.92137
   H       -4.23119       -22.89058         2.91658
   H       -6.97229       -24.52593         3.65710
   H       -5.67920       -25.36605         4.51439
   H       -8.43930       -26.17476         6.06354
   H       -9.68371       -24.54410         9.41190
   H       -9.91779       -27.02849         7.62363
   H      -11.29811       -26.17641        10.23566
   H      -12.97671       -27.95550        11.10588
   H      -13.86853       -30.30097        10.53781
   H      -14.31654       -32.40110         9.59314
   H      -14.39240       -34.53796         8.16177
   H      -13.28277       -35.55544         5.96479
   H      -12.05523       -34.51596         5.07372
*
