# ORCA input file
# SCF done       -193.566767228827          0.000299867905
! CAM-B3LYP def2-SVP def2/J RIJCOSX Grid4 TightSCF
%maxcore 5000
%tddft
    Mode sTDDFT
    Ethresh 5.0
    maxcore 5000
end

%pal
  nprocs 6
  end
* xyz 0 1
   C       -0.08497         2.76188        -4.13225
   C        1.03120         2.14280        -3.72571
   C        2.35650         2.68759        -3.63896
   C        3.29051         1.82058        -3.19176
   C        2.79258         0.52226        -2.88777
   S        1.06411         0.45231        -3.19606
   C        3.49273        -0.55325        -2.40829
   C        4.86540        -0.61530        -2.04868
   C        5.24484        -1.80716        -1.53067
   C        4.20246        -2.77756        -1.43029
   S        2.72590        -2.10333        -2.11637
   C        4.33555        -3.98187        -0.81234
   C        3.35674        -4.99428        -0.55221
   C        3.66456        -5.95922         0.42651
   C        2.75960        -6.94161         0.73153
   C        1.51059        -6.98160         0.08066
   C        1.19507        -6.03855        -0.88861
   C        2.11506        -5.06113        -1.20139
   C        0.74797        -8.08818         0.60799
   C        1.51728        -8.72912         1.59560
   C        2.86809        -8.05940         1.74318
   C        3.07872        -7.51468         3.16502
   C        1.95517        -6.58642         3.60959
   C        3.94521        -9.10276         1.36887
   C        5.38089        -8.59772         1.30249
   C        1.04209        -9.83570         2.24952
   C       -0.22932       -10.34814         1.93048
   C       -0.99155        -9.68102         0.95608
   C       -0.51987        -8.56502         0.29801
   C       -0.75725       -11.53864         2.53908
   C       -0.10033       -12.31287         3.44004
   C       -0.56806       -13.51211         4.01174
   C        0.19056       -14.22742         4.90310
   C       -0.09645       -15.45584         5.54974
   C        0.88843       -15.90444         6.37922
   C        2.01273       -15.05263         6.44757
   S        1.77975       -13.66447         5.40560
   C        3.17675       -15.14155         7.18061
   C        3.64823       -16.12682         8.07753
   C        4.85521       -15.83430         8.63375
   C        5.42478       -14.59405         8.22139
   S        4.32729       -13.82783         7.07716
   C        6.64438       -14.09447         8.57611
   C        7.22164       -12.85774         8.13174
   C        6.42746       -11.80618         7.64550
   C        7.01718       -10.70581         7.08610
   C        8.41604       -10.57602         7.03219
   C        9.21532       -11.56821         7.59063
   C        8.61803       -12.68903         8.13103
   C        8.72867        -9.33842         6.35148
   C        7.52135        -8.71952         5.97168
   C        6.33621        -9.54041         6.41642
   C        5.43787        -8.75926         7.39150
   C        6.19644        -8.25183         8.61171
   C        5.49857       -10.02060         5.21591
   C        6.30504       -10.84705         4.22217
   C        7.51556        -7.52869         5.29502
   C        8.73229        -6.89924         4.97889
   C        9.92805        -7.52586         5.36982
   C        9.93889        -8.72993         6.04321
   C        8.79175        -5.63743         4.29536
   C        7.73911        -4.93579         3.80194
   C        7.85599        -3.67454         3.18387
   C        6.80140        -2.95593         2.69019
   C        6.84834        -1.66231         2.10591
   C        5.64305        -1.17718         1.71131
   C        4.55910        -2.06183         1.93933
   S        5.13485        -3.53144         2.70312
   C        3.24293        -1.88447         1.59465
   C        2.66405        -0.75574         0.94806
   C        1.35610        -0.89786         0.64363
   C        0.79135        -2.15900         1.03064
   S        2.02725        -3.11952         1.85453
   C       -0.45375        -2.60276         0.81797
   H       -0.05910         3.79068        -4.44539
   H       -1.03330         2.25760        -4.16070
   H        2.54754         3.70872        -3.91851
   H        4.33228         2.06096        -3.07013
   H        5.52026         0.22934        -2.17123
   H        6.23942        -2.03268        -1.18646
   H        5.31789        -4.17505        -0.39538
   H        4.60442        -5.88340         0.95123
   H        0.24123        -6.06816        -1.39420
   H        1.87662        -4.34460        -1.97111
   H        4.02087        -6.96563         3.19871
   H        3.14358        -8.35899         3.85512
   H        1.88205        -5.72924         2.94489
   H        2.14755        -6.22204         4.61621
   H        1.00080        -7.10842         3.60843
   H        3.67810        -9.52433         0.39588
   H        3.88846        -9.91009         2.10259
   H        5.50455        -7.88346         0.49369
   H        6.04766        -9.43688         1.11476
   H        5.68604        -8.13292         2.23595
   H        1.64574       -10.31416         3.00468
   H       -1.97222       -10.06641         0.71370
   H       -1.12328        -8.07588        -0.45255
   H       -1.74861       -11.83845         2.22144
   H        0.88947       -12.01685         3.76165
   H       -1.54223       -13.89262         3.73655
   H       -1.02593       -15.97102         5.37917
   H        0.83583       -16.81689         6.94720
   H        3.08809       -17.02316         8.27938
   H        5.36702       -16.46985         9.33566
   H        7.26476       -14.72782         9.19829
   H        5.35489       -11.84773         7.73061
   H       10.29163       -11.47500         7.58657
   H        9.23579       -13.47859         8.53575
   H        4.62498        -9.41266         7.71513
   H        4.99543        -7.91344         6.86076
   H        6.63310        -9.08152         9.16350
   H        5.52332        -7.71303         9.27479
   H        6.99772        -7.57903         8.31360
   H        5.08868        -9.14522         4.70954
   H        4.66525       -10.62044         5.58844
   H        7.13850       -10.26961         3.82779
   H        5.67371       -11.15338         3.39153
   H        6.69930       -11.74154         4.69859
   H        6.57915        -7.06873         5.01946
   H       10.86582        -7.04385         5.13020
   H       10.87456        -9.18845         6.32815
   H        9.78236        -5.21418         4.17627
   H        6.73392        -5.32803         3.87947
   H        8.84023        -3.23012         3.10797
   H        7.78040        -1.13360         2.00454
   H        5.49755        -0.21513         1.25331
   H        3.24911         0.11722         0.71613
   H        0.75878        -0.16419         0.13206
   H       -1.17265        -1.98989         0.30393
   H       -0.76785        -3.57814         1.14193
*
