# ORCA input file
# SCF done       -177.809122196992          0.000740903277
! CAM-B3LYP def2-SVP def2/J RIJCOSX Grid4 TightSCF
%maxcore 5000
%tddft
    Mode sTDDFT
    Ethresh 5.0
    maxcore 5000
end

%pal
  nprocs 6
  end
* xyz 0 1
   C        1.12720         1.08732         0.16020
   C        0.60787         0.63001         1.36756
   C        0.44397        -0.77616         1.63396
   N       -0.15846        -1.17453         2.77715
   C       -0.48520        -0.27227         3.65070
   C       -0.23117         1.10622         3.43223
   N        0.26637         1.53875         2.31557
   C        0.84911        -1.74396         0.69501
   C        1.37687        -1.27591        -0.51540
   C        1.50257         0.14262        -0.78359
   N        2.03820         0.36965        -1.99355
   S        2.35508        -1.03425        -2.68601
   N        1.85668        -2.01163        -1.52680
   C        0.70622        -3.15931         0.97138
   C        0.20737        -4.05155         0.00704
   C        0.11364        -5.46290         0.27319
   N       -0.47224        -6.27127        -0.61847
   C       -0.77192        -5.80443        -1.80264
   C       -0.59896        -4.41047        -2.10133
   N       -0.19997        -3.57394        -1.18195
   C       -0.94473        -3.90736        -3.38045
   N       -1.20890        -3.52444        -4.42726
   C       -1.33022        -6.68428        -2.76063
   N       -1.75445        -7.38732        -3.55971
   C        0.57733        -6.03673         1.48088
   C        1.04492        -5.13969         2.45673
   C        1.10194        -3.71407         2.19831
   N        1.66783        -3.05277         3.21212
   S        2.06352        -4.08874         4.36181
   N        1.56856        -5.44225         3.64806
   C        0.65427        -7.46654         1.52891
   N        0.39263        -8.28488         2.59179
   C       -0.15462        -7.89893         3.86998
   C       -1.57817        -7.36658         3.73484
   C        0.51097        -9.64473         2.23898
   O        0.29078       -10.55604         3.01407
   C        0.92388        -9.62701         0.85592
   C        0.99461        -8.27411         0.44511
   C        1.48911        -8.24306        -0.91693
   O        1.76444        -7.33498        -1.67424
   N        1.62948        -9.60030        -1.25953
   C        2.11732        -9.98949        -2.56015
   C        3.60270       -10.34223        -2.52714
   C        1.30984       -10.43586        -0.21598
   C        1.37001       -11.84697        -0.29171
   C        1.01666       -12.64464         0.75225
   C        1.04941       -14.05986         0.73410
   S        0.46758       -14.94996         2.11563
   C        0.81505       -16.47737         1.37148
   C        1.36621       -16.27973         0.09787
   C        1.48938       -14.92722        -0.24852
   C        1.76135       -17.28881        -0.79770
   N        2.10679       -18.04970        -1.58463
   C        0.51268       -17.66635         2.08015
   C        0.81118       -18.92032         1.65894
   C        0.50526       -20.13987         2.33773
   C       -0.28272       -20.28233         3.50699
   C       -0.51974       -21.57865         4.09116
   N       -1.27540       -21.69593         5.21297
   C       -1.77570       -20.61608         5.73224
   C       -1.55755       -19.34400         5.15337
   N       -0.83688       -19.19031         4.08055
   C        0.00576       -22.74615         3.54131
   C        0.77383       -22.63029         2.39285
   C        1.02009       -21.33662         1.79420
   N        1.78272       -21.43818         0.70153
   S        2.14006       -22.97801         0.45750
   N        1.36930       -23.61642         1.70391
   H        1.25021         2.14278        -0.01476
   H       -0.98411        -0.61579         4.54708
   H       -0.47691         1.84771         4.18045
   H        0.49435        -7.14671         4.32507
   H       -0.14894        -8.80580         4.48073
   H       -1.59609        -6.46262         3.12955
   H       -1.97753        -7.13398         4.71807
   H       -2.21782        -8.11075         3.26555
   H        1.96009        -9.12638        -3.21291
   H        1.52305       -10.82566        -2.93817
   H        4.17916        -9.48251        -2.19463
   H        3.93732       -10.62044        -3.52260
   H        3.79433       -11.16997        -1.84750
   H        1.69591       -12.28719        -1.22219
   H        0.67968       -12.18524         1.67240
   H        1.89441       -14.60705        -1.19198
   H        0.00784       -17.53932         3.02681
   H        1.34904       -19.06302         0.73103
   H       -2.37384       -20.73306         6.62599
   H       -1.98787       -18.44789         5.58050
   H       -0.18721       -23.69844         4.00505
*
