# ORCA input file
# SCF done       -206.880240667578          0.000825770757
! CAM-B3LYP def2-SVP def2/J RIJCOSX Grid4 TightSCF
%maxcore 5000
%tddft
    Mode sTDDFT
    Ethresh 5.0
    maxcore 5000
end

%pal
  nprocs 6
  end
* xyz 0 1
   C       -1.79544         2.52552         1.14382
   C       -0.80819         3.42055         1.43385
   C        0.25992         3.15258         2.31998
   N        1.15239         2.98880         3.02119
   C       -0.69721         4.71107         0.86772
   N       -0.55200         5.77074         0.45407
   C       -1.93287         1.18221         1.68671
   C       -2.95499         0.49348         0.96886
   C       -3.32841        -0.77980         1.29598
   C       -2.68269        -1.43431         2.36768
   C       -1.64765        -0.75747         3.07720
   C       -1.28974         0.56288         2.72694
   C       -0.98660        -1.43107         4.12506
   C       -1.33412        -2.71091         4.46045
   C       -2.35989        -3.37548         3.77046
   C       -3.02326        -2.74664         2.75134
   C       -3.50692         1.37728        -0.06751
   O       -4.27309         1.09500        -0.95926
   C       -2.89823         2.72009         0.20305
   C       -3.39435         3.89085        -0.23336
   C       -4.58246         4.03848        -1.06362
   C       -4.53258         4.74520        -2.24235
   C       -3.31640         5.40889        -2.79260
   F       -2.24830         4.59316        -2.79563
   F       -3.49042         5.82666        -4.05101
   F       -2.96258         6.48814        -2.07303
   S       -6.00901         4.76367        -3.12071
   C       -6.74859         3.81971        -1.87565
   C       -8.08805         3.43479        -1.94397
   N       -9.18410         3.09253        -1.95779
   C       -5.88837         3.50332        -0.83012
   C       -6.32813         2.68248         0.26049
   C       -5.72549         2.56564         1.46355
   C       -6.02155         1.56384         2.42087
   S       -4.86412         1.27051         3.70236
   C       -5.67870        -0.15647         4.27674
   C       -6.84012        -0.35886         3.53289
   C       -7.01612         0.59811         2.48645
   N       -8.15407         0.27892         1.81543
   C       -8.70201        -0.84443         2.40474
   C       -9.88100        -1.43403         1.92325
   N      -10.83464        -1.92903         1.52263
   C       -7.92113        -1.26700         3.45787
   C       -5.16611        -0.99994         5.28564
   C       -3.95662        -0.86311         5.87400
   C       -3.42548        -1.77454         6.84553
   C       -2.43610        -1.43508         7.75135
   C       -1.78920        -0.10304         7.88442
   F       -2.68076         0.88078         8.10570
   F       -0.91241        -0.06281         8.89323
   F       -1.11338         0.26230         6.77683
   S       -2.02504        -2.69575         8.84742
   C       -3.19941        -3.72656         8.10189
   C       -3.36840        -5.04562         8.53633
   N       -3.50959        -6.12398         8.90111
   C       -3.85960        -3.12366         7.04857
   C       -4.81781        -3.82419         6.22135
   C       -5.81348        -4.58485         6.70578
   C       -6.78237        -5.24858         5.88526
   C       -6.54455        -5.88746         4.71353
   C       -7.56162        -6.53411         3.89531
   C       -8.84791        -6.08866         3.76024
   C       -9.81971        -6.72330         2.95910
   N      -10.63604        -7.23261         2.33496
   C       -9.28497        -4.88675         4.35533
   N       -9.61775        -3.87603         4.78645
   C       -6.91810        -7.61318         3.16718
   C       -5.50976        -7.51453         3.37354
   C       -5.21185        -6.37102         4.25198
   O       -4.11789        -5.94743         4.55589
   C       -4.63959        -8.39651         2.79828
   C       -5.14742        -9.43610         1.98744
   C       -6.55478        -9.54266         1.78344
   C       -7.43254        -8.61181         2.38391
   C       -7.04727       -10.58902         0.97758
   C       -6.19303       -11.48841         0.39949
   C       -4.80849       -11.38258         0.59997
   C       -4.29667       -10.37777         1.37563
   H       -4.11150        -1.27977         0.74483
   H       -0.52103         1.05725         3.29939
   H       -0.19802        -0.91472         4.65062
   H       -0.81476        -3.22563         5.25523
   H       -2.61853        -4.38577         4.04825
   H       -3.81107        -3.25488         2.21332
   H       -2.89092         4.81727         0.01714
   H       -7.19366         2.07617         0.03483
   H       -4.90291         3.21733         1.72098
   H       -8.57247         0.77635         1.04706
   H       -8.13020        -2.10575         4.09165
   H       -5.82470        -1.80719         5.57425
   H       -3.34821        -0.00469         5.62364
   H       -4.71372        -3.67113         5.15668
   H       -5.98035        -4.63665         7.77409
   H       -7.78968        -5.27306         6.28729
   H       -3.57609        -8.30586         2.96280
   H       -8.49423        -8.71621         2.22227
   H       -8.11367       -10.66506         0.82497
   H       -6.57985       -12.28674        -0.21552
   H       -4.14939       -12.10158         0.13734
   H       -3.23159       -10.29219         1.53340
*
