# ORCA input file
# SCF done       -247.761978194495          0.000973034276
! CAM-B3LYP def2-SVP def2/J RIJCOSX Grid4 TightSCF
%maxcore 5000
%tddft
    Mode sTDDFT
    Ethresh 5.0
    maxcore 5000
end

%pal
  nprocs 6
  end
* xyz 0 1
   C       -2.24089        -3.20704         5.33434
   C       -2.41680        -3.91309         6.49148
   F       -2.10293        -3.36371         7.66916
   C       -2.92990        -5.22663         6.46008
   F       -3.09140        -5.89379         7.60805
   C       -3.25914        -5.81551         5.27138
   C       -3.08797        -5.11425         4.06170
   C       -2.57115        -3.78553         4.09228
   C       -2.39297        -3.06251         2.89126
   C       -2.71966        -3.65017         1.69716
   C       -3.22589        -4.98209         1.67368
   C       -3.41127        -5.70289         2.81976
   C       -3.45760        -5.39892         0.28165
   O       -3.85055        -6.47770        -0.10872
   C       -3.02675        -4.24282        -0.55209
   C       -2.65370        -3.15019         0.33017
   C       -2.38631        -1.86750        -0.05800
   C       -2.48948        -1.42093        -1.39400
   N       -2.61710        -1.01000        -2.45741
   C       -2.03750        -0.82892         0.83209
   N       -1.74631         0.04410         1.51657
   C       -2.84090        -4.33556        -1.89105
   C       -3.28678        -5.45783        -2.65730
   C       -2.50503        -6.28655        -3.43238
   N       -1.11904        -6.13333        -3.63058
   O       -0.57030        -6.88973        -4.40647
   O       -0.56038        -5.24169        -3.01082
   C       -3.29832        -7.38726        -3.91849
   C       -4.55037        -7.26277        -3.41218
   C       -4.62656        -6.04969        -2.63842
   C       -5.75344        -5.45497        -2.11889
   C       -5.97197        -4.05701        -1.89695
   C       -7.27404        -3.87347        -1.55762
   C       -7.93081        -5.15570        -1.49471
   N       -9.22906        -5.29034        -0.96729
   O       -9.79995        -4.26841        -0.63199
   O       -9.70222        -6.40898        -0.84567
   C       -7.01938        -6.15013        -1.82416
   C       -7.09116        -7.56210        -1.72586
   C       -8.15988        -8.34411        -2.03347
   C       -8.22144        -9.75389        -1.90820
   N       -7.55915       -10.56066        -1.01739
   C       -6.84316       -10.16304         0.17648
   C       -7.74297        -9.40864         1.14974
   C       -7.85940       -11.92743        -1.22838
   O       -7.41501       -12.82751        -0.55423
   C       -8.75421       -11.92312        -2.36885
   C       -8.97633       -10.58720        -2.74233
   C       -9.82449       -10.59087        -3.91567
   O      -10.27323        -9.70199        -4.59989
   N      -10.05731       -11.96872        -4.17601
   C      -10.97751       -12.33905        -5.22587
   C      -12.27560       -12.92058        -4.67432
   C       -9.41743       -12.76926        -3.26464
   C       -9.32152       -14.18190        -3.17925
   C       -9.66962       -15.11576        -4.09986
   C       -9.47937       -16.51312        -3.91914
   S       -9.73256       -17.58144        -5.27427
   C       -9.34420       -18.97701        -4.33593
   C       -9.02127       -18.60974        -3.01935
   C       -9.10895       -17.22367        -2.79925
   C       -8.68262       -19.61468        -2.02700
   O       -8.72592       -20.80873        -2.18081
   C       -8.20113       -19.04503        -0.65920
   F       -7.15567       -18.21351        -0.81559
   F       -9.16311       -18.34416        -0.03974
   F       -7.81845       -20.01353         0.16359
   C       -9.24380       -20.27190        -4.90872
   C       -9.90741       -20.77730        -5.97794
   C       -9.33504       -21.95047        -6.71274
   O       -8.45005       -22.67439        -6.33299
   C      -10.03419       -21.95953        -8.01224
   C       -9.79423       -22.74077        -9.10647
   C      -10.57780       -22.55586       -10.26726
   C      -11.59659       -21.55791       -10.27340
   C      -12.36933       -21.37404       -11.43775
   C      -12.14300       -22.14508       -12.54328
   C      -11.13556       -23.13230       -12.53607
   C      -10.36938       -23.33479       -11.42229
   F      -10.93499       -23.86974       -13.63372
   F      -12.87665       -21.96900       -13.64740
   C      -11.82630       -20.76784        -9.12446
   C      -11.05948       -20.96977        -8.00766
   C      -11.08868       -20.33531        -6.69415
   C      -12.15237       -19.66190        -6.15758
   C      -12.22513       -19.26785        -4.80466
   N      -12.33002       -18.94332        -3.70907
   C      -13.32219       -19.34370        -6.87945
   N      -14.28126       -19.04290        -7.43217
   H       -1.84834        -2.20308         5.37653
   H       -3.64903        -6.82130         5.26499
   H       -1.99390        -2.06224         2.94340
   H       -3.79611        -6.71054         2.77849
   H       -2.25955        -3.58711        -2.41710
   H       -2.91575        -8.15623        -4.56210
   H       -5.39280        -7.88676        -3.64063
   H       -5.24396        -3.28888        -2.07439
   H       -7.77540        -2.94664        -1.35152
   H       -6.15919        -8.02564        -1.43159
   H       -9.02538        -7.90876        -2.51352
   H       -5.96364        -9.56949        -0.08158
   H       -6.50178       -11.09796         0.63145
   H       -8.14298        -8.50447         0.69740
   H       -7.17378        -9.13527         2.03344
   H       -8.57558       -10.03768         1.45519
   H      -10.49420       -13.02786        -5.92399
   H      -11.19197       -11.40894        -5.76161
   H      -12.09434       -13.82168        -4.09323
   H      -12.94417       -13.16324        -5.49537
   H      -12.76531       -12.19053        -4.03490
   H       -8.84709       -14.50612        -2.26233
   H      -10.08377       -14.83162        -5.05473
   H       -8.93128       -16.74965        -1.85237
   H       -8.49107       -20.92508        -4.47385
   H       -9.01682       -23.48914        -9.08646
   H      -13.14649       -20.62609       -11.45919
   H       -9.60309       -24.09397       -11.43300
   H      -12.59597       -20.01319        -9.15832
*
