# ORCA input file
# SCF done       -225.220699033164          0.000443474571
! CAM-B3LYP def2-SVP def2/J RIJCOSX Grid4 TightSCF
%maxcore 5000
%tddft
    Mode sTDDFT
    Ethresh 5.0
    maxcore 5000
end

%pal
  nprocs 6
  end
* xyz 0 1
   C       -7.49064        -0.01479        10.03214
   C       -8.33979        -0.22201        11.08328
   F       -8.32040         0.60289        12.13675
   C       -9.24458        -1.30288        11.07222
   F      -10.06512        -1.48179        12.11485
   C       -9.28773        -2.16180        10.00958
   C       -8.42632        -1.97391         8.91159
   C       -7.51076        -0.88182         8.92155
   C       -6.63710        -0.67168         7.82944
   C       -6.67938        -1.52559         6.75940
   C       -7.59931        -2.61246         6.75839
   C       -8.45295        -2.84306         7.79832
   C       -7.45270        -3.36257         5.50197
   O       -8.08603        -4.34881         5.16270
   C       -6.41344        -2.67603         4.73160
   C       -5.92195        -1.55497         5.50963
   C       -4.92649        -0.67664         5.16596
   C       -4.49747         0.38979         5.98491
   N       -4.10622         1.27435         6.60243
   C       -4.19008        -0.70587         3.96333
   N       -3.55719        -0.67615         3.00501
   C       -6.01048        -3.01490         3.46275
   C       -6.41724        -4.06441         2.63351
   S       -7.56461        -5.31222         3.02497
   C       -7.43528        -6.01447         1.46232
   C       -6.50196        -5.35398         0.64776
   C       -5.91519        -4.23874         1.31522
   C       -4.94080        -3.47617         0.65610
   C       -4.54472        -3.83309        -0.61608
   C       -3.56431        -3.07085        -1.29583
   N       -2.77463        -2.45310        -1.84895
   C       -5.09207        -4.98160        -1.25707
   C       -4.63195        -5.35044        -2.54382
   N       -4.27715        -5.66566        -3.58598
   C       -6.05646        -5.73676        -0.62783
   C       -8.23008        -7.16069         1.15003
   N       -8.99875        -7.31452         0.02272
   C       -9.38265        -6.27747        -0.90785
   C      -10.29436        -5.24552        -0.25029
   C       -9.67883        -8.56010         0.03054
   O      -10.45406        -8.90631        -0.83196
   C       -9.22065        -9.20010         1.24103
   C       -8.36074        -8.30622         1.92019
   C       -7.86384        -8.98336         3.10028
   O       -7.10171        -8.63642         3.97375
   N       -8.47268       -10.25924         3.05399
   C       -8.26377       -11.18468         4.14204
   C       -9.49401       -11.30345         5.03726
   C       -9.28356       -10.39902         1.94926
   C      -10.07449       -11.48312         1.50107
   C      -10.15423       -12.76244         1.95973
   C      -11.01199       -13.74250         1.40883
   S      -10.57854       -15.40865         1.55603
   C      -11.85903       -15.94151         0.51989
   C      -12.69181       -14.85708         0.18092
   C      -12.21244       -13.60514         0.67913
   C      -12.97726       -12.44550         0.48224
   C      -14.15923       -12.51599        -0.22305
   C      -14.93926       -11.35078        -0.41364
   N      -15.57008       -10.40444        -0.54734
   C      -14.63730       -13.76489        -0.71166
   C      -15.87224       -13.83622        -1.39841
   N      -16.86507       -13.93481        -1.96073
   C      -13.92278       -14.92034        -0.48856
   C      -11.93345       -17.29773         0.14759
   C      -12.48101       -17.85688        -0.97192
   C      -12.80433       -19.31211        -0.96907
   O      -12.45819       -20.12327        -0.14252
   C      -13.67370       -19.51714        -2.14410
   C      -14.34368       -20.64144        -2.53202
   C      -15.15980       -20.59100        -3.68470
   C      -15.27395       -19.36885        -4.40971
   C      -16.10109       -19.32155        -5.54957
   C      -16.77810       -20.43756        -5.95521
   C      -16.66089       -21.64714        -5.24041
   C      -15.86967       -21.72354        -4.12832
   F      -17.33491       -22.72464        -5.66090
   F      -17.56102       -20.39349        -7.03920
   C      -14.55996       -18.22286        -3.99055
   C      -13.76335       -18.30035        -2.87994
   C      -12.90286       -17.30802        -2.24136
   C      -12.41505       -16.17842        -2.84898
   C      -11.39719       -15.37537        -2.30133
   N      -10.54882       -14.71551        -1.89708
   C      -12.81518       -15.74079        -4.12854
   N      -13.11803       -15.33321        -5.15729
   H       -6.80439         0.81727        10.05693
   H       -9.98615        -2.98391        10.01636
   H       -5.95841         0.16462         7.86892
   H       -9.13965        -3.67533         7.77100
   H       -5.26998        -2.36895         3.01252
   H       -4.47847        -2.62026         1.12459
   H       -6.43717        -6.63064        -1.09867
   H       -9.91651        -6.78725        -1.71450
   H       -8.49811        -5.78856        -1.32139
   H      -11.18383        -5.72824         0.14728
   H      -10.60037        -4.50770        -0.98620
   H       -9.78063        -4.73516         0.56226
   H       -7.43150       -10.77113         4.71998
   H       -7.95755       -12.15791         3.75000
   H       -9.73077       -10.33415         5.46890
   H       -9.29377       -12.00201         5.84482
   H      -10.35862       -11.65281         4.47735
   H      -10.63956       -11.22234         0.61626
   H       -9.48779       -13.11774         2.73153
   H      -12.67412       -11.50139         0.90484
   H      -14.33371       -15.86962        -0.79588
   H      -11.52140       -18.01289         0.85413
   H      -14.25455       -21.55649        -1.96662
   H      -16.19974       -18.40426        -6.10869
   H      -15.79218       -22.65632        -3.59202
   H      -14.67097       -17.30835        -4.55111
*
