# ORCA input file
# SCF done       -232.248103473059          0.000879374495
! CAM-B3LYP def2-SVP def2/J RIJCOSX Grid4 TightSCF
%maxcore 5000
%tddft
    Mode sTDDFT
    Ethresh 5.0
    maxcore 5000
end

%pal
  nprocs 6
  end
* xyz 0 1
   C       -7.66589         2.72590         3.80598
   C       -8.79680         2.97907         4.52937
   F       -9.27266         4.22784         4.62215
   C       -9.47751         1.93352         5.18612
   F      -10.58475         2.21108         5.88834
   C       -9.01718         0.64933         5.10968
   C       -7.85349         0.35539         4.37193
   C       -7.16418         1.41150         3.70726
   C       -5.99460         1.14127         2.96315
   C       -5.52821        -0.14633         2.88345
   C       -6.22520        -1.19426         3.54834
   C       -7.35382        -0.96194         4.27939
   C       -5.51492        -2.46768         3.33081
   O       -5.64891        -3.49839         3.94766
   C       -4.44540        -2.15025         2.32761
   C       -4.37157        -0.70467         2.19058
   C       -3.40987         0.00525         1.52687
   C       -2.28205        -0.56789         0.89990
   N       -1.34165        -0.97208         0.38134
   C       -3.40139         1.41209         1.41099
   N       -3.34147         2.55075         1.28284
   C       -3.76118        -3.09964         1.65616
   C       -4.12118        -4.48958         1.69880
   S       -2.86943        -5.68121         1.83118
   C       -5.37375        -5.06866         1.57799
   C       -6.62640        -4.33538         1.30437
   O       -6.74994        -3.11984         1.36980
   C       -7.71899        -5.21732         0.94217
   C       -9.00327        -4.89717         0.55233
   N       -9.69245        -6.04284         0.34900
   C      -11.04516        -6.12350        -0.14348
   C      -11.06871        -6.17311        -1.66971
   C       -8.88811        -7.10487         0.59132
   C       -7.64658        -6.64039         0.96713
   C       -6.45452        -7.38030         1.33904
   O       -6.37967        -8.59619         1.35968
   C       -5.31424        -6.49088         1.63660
   C       -4.03137        -6.96240         1.83700
   C       -3.55731        -8.30714         2.02324
   N       -3.99781        -9.16083         2.99137
   C       -5.01713        -8.90963         3.97131
   C       -3.28977       -10.38722         2.96506
   O       -3.47797       -11.28540         3.75553
   C       -2.35963       -10.22718         1.87130
   C       -2.53009        -8.92893         1.33046
   C       -1.60851        -8.78283         0.22539
   O       -1.38089        -7.86421        -0.53020
   N       -0.93179       -10.02383         0.17264
   C        0.09252       -10.24650        -0.81117
   C       -1.37103       -10.88801         1.14812
   C       -0.95120       -12.20685         1.44713
   C       -0.07068       -13.00889         0.79701
   C        0.24877       -14.31133         1.24763
   S       -0.37589       -15.01622         2.71726
   C        0.50404       -16.51267         2.48787
   C        1.23944       -16.44989         1.31283
   C        1.09191       -15.22115         0.63146
   C        1.88217       -15.19191        -0.59757
   O        1.99457       -14.28231        -1.38342
   C        2.54876       -16.55595        -0.68590
   C        2.16626       -17.31709         0.57567
   O        2.58046       -18.40792         0.88276
   C        0.32174       -17.53125         3.45506
   C        0.89805       -18.75939         3.42310
   C        0.70568       -19.75721         4.41309
   C       -0.32447       -19.95833         5.28190
   C       -0.08138       -20.83235         6.46832
   O        0.86386       -21.56465         6.64087
   C       -1.20171       -20.56225         7.38985
   C       -1.38596       -21.00170         8.66918
   C       -2.52987       -20.57827         9.38189
   C       -3.45712       -19.69614         8.75450
   C       -4.59062       -19.26800         9.47466
   C       -4.79604       -19.69894        10.75507
   C       -3.87949       -20.57316        11.37381
   C       -2.76962       -21.00431        10.70296
   F       -4.10608       -20.97791        12.63050
   F       -5.87433       -19.29272        11.43747
   C       -3.24187       -19.26253         7.42635
   C       -2.13468       -19.69920         6.74888
   C       -1.67400       -19.44098         5.38460
   C       -2.48114       -19.00664         4.36613
   C       -2.09539       -18.91990         3.01382
   N       -1.85016       -18.83487         1.89586
   C       -3.83654       -18.65319         4.53931
   N       -4.93804       -18.34300         4.62477
   H       -7.15653         3.53767         3.31055
   H       -9.54850        -0.13913         5.61938
   H       -5.49684         1.96097         2.47047
   H       -7.86129        -1.77475         4.77599
   H       -2.91116        -2.84613         1.03630
   H       -9.44728        -3.93114         0.41491
   H      -11.59661        -5.24939         0.21145
   H      -11.51130        -7.02257         0.26716
   H      -10.60957        -5.27954        -2.08565
   H      -12.09395        -6.23495        -2.02268
   H      -10.52273        -7.04175        -2.02952
   H       -9.23241        -8.11547         0.49507
   H       -6.00457        -9.10447         3.54811
   H       -4.96827        -7.87806         4.31960
   H       -4.84637        -9.59657         4.80018
   H        0.19938        -9.31205        -1.36432
   H       -0.19103       -11.03806        -1.50700
   H        1.04440       -10.49339        -0.33854
   H       -1.43952       -12.60349         2.33118
   H        0.43517       -12.71345        -0.10962
   H        3.63267       -16.46909        -0.78434
   H        2.19873       -17.09468        -1.56985
   H       -0.31497       -17.25882         4.28862
   H        1.60933       -18.98601         2.64000
   H        1.53275       -20.44972         4.54631
   H       -0.66786       -21.66145         9.13174
   H       -5.30379       -18.60195         9.01468
   H       -2.07749       -21.67274        11.19062
   H       -3.95425       -18.58595         6.98217
*
