# ORCA input file
# SCF done       -254.286682638736          0.000439735214
! CAM-B3LYP def2-SVP def2/J RIJCOSX Grid4 TightSCF
%maxcore 5000
%tddft
    Mode sTDDFT
    Ethresh 5.0
    maxcore 5000
end

%pal
  nprocs 6
  end
* xyz 0 1
   C      -15.78551        -6.48810        -5.32642
   C      -16.61132        -7.30540        -4.60665
   F      -17.93009        -7.08027        -4.58553
   C      -16.08762        -8.39377        -3.87903
   F      -16.92022        -9.17871        -3.18415
   C      -14.74499        -8.64895        -3.88114
   C      -13.86793        -7.82532        -4.61372
   C      -14.39615        -6.72428        -5.34947
   C      -13.53477        -5.88355        -6.09019
   C      -12.18818        -6.13669        -6.09374
   C      -11.66873        -7.24262        -5.36250
   C      -12.47742        -8.07095        -4.63757
   C      -10.20790        -7.31908        -5.54633
   O       -9.45865        -8.15196        -5.08574
   C       -9.87239        -6.20922        -6.47969
   C      -11.07906        -5.44493        -6.73783
   C      -11.13404        -4.23361        -7.37084
   C       -9.99165        -3.53443        -7.81805
   N       -9.09025        -2.90356        -8.14388
   C      -12.32523        -3.50875        -7.58612
   N      -13.26742        -2.88622        -7.78859
   C       -8.68324        -6.09774        -7.12721
   C       -7.49717        -6.80424        -6.77605
   C       -6.67661        -7.51876        -7.63094
   N       -6.87939        -7.67784        -9.01529
   O       -6.01064        -8.24022        -9.65264
   O       -7.90975        -7.22852        -9.49189
   C       -5.62356        -8.14778        -6.88187
   C       -5.81252        -7.86677        -5.56864
   C       -6.96177        -7.00711        -5.43072
   C       -7.38430        -6.34241        -4.29601
   C       -7.95728        -5.03655        -4.25831
   C       -8.00948        -4.61355        -2.96166
   C       -7.55046        -5.66663        -2.11071
   N       -7.56150        -5.56936        -0.71103
   O       -7.94256        -4.51934        -0.22433
   O       -7.18762        -6.52991        -0.05060
   C       -7.18899        -6.76735        -2.89615
   C       -6.89126        -8.05775        -2.42797
   C       -6.99896        -9.19596        -3.18399
   C       -6.69693       -10.52365        -2.82989
   N       -6.36656       -11.08629        -1.62103
   C       -6.24540       -10.44910        -0.32857
   C       -4.87056        -9.81385        -0.13691
   C       -6.12920       -12.47457        -1.73375
   O       -5.83892       -13.18801        -0.80114
   C       -6.32590       -12.75823        -3.14256
   C       -6.67776       -11.56139        -3.77923
   C       -6.82210       -11.83646        -5.19327
   O       -7.07945       -11.12869        -6.13906
   N       -6.55195       -13.22843        -5.30921
   C       -6.70751       -13.87420        -6.59292
   C       -7.94627       -14.76268        -6.64308
   C       -6.25522       -13.78503        -4.09459
   C       -5.92018       -15.12160        -3.74414
   C       -5.63012       -16.16579        -4.55281
   C       -5.35102       -17.50440        -4.08401
   C       -5.90936       -17.97794        -2.88535
   C       -5.74700       -19.30284        -2.56068
   C       -5.04609       -20.17658        -3.40053
   C       -5.06599       -21.52616        -2.78253
   O       -4.57724       -22.55303        -3.17823
   N       -5.77813       -21.37747        -1.60318
   C       -6.23151       -20.08289        -1.39216
   O       -6.87357       -19.71800        -0.44279
   C       -6.06067       -22.47473        -0.70102
   C       -7.39094       -23.13823        -1.03904
   C       -4.47187       -19.73174        -4.56782
   C       -4.60377       -18.37984        -4.90769
   C       -3.90935       -17.87683        -6.07939
   C       -3.84573       -18.54026        -7.24848
   C       -3.11361       -18.08508        -8.38485
   C       -3.31900       -18.48797        -9.66372
   C       -2.26277       -18.35034       -10.70838
   O       -1.28281       -17.64821       -10.65934
   C       -2.65190       -19.31047       -11.76273
   C       -1.95815       -19.68483       -12.87738
   C       -2.51424       -20.65701       -13.73912
   C       -3.78512       -21.22465       -13.42926
   C       -4.32790       -22.20111       -14.28847
   C       -3.64218       -22.59538       -15.40314
   C       -2.38611       -22.03236       -15.70959
   C       -1.83361       -21.08247       -14.89646
   F       -1.73676       -22.43909       -16.80629
   F       -4.15764       -23.52378       -16.21647
   C       -4.48670       -20.81052       -12.27426
   C       -3.92842       -19.86652       -11.45426
   C       -4.41759       -19.24263       -10.23095
   C       -5.72041       -19.17997        -9.81070
   C       -6.15295       -18.29473        -8.80167
   N       -6.53550       -17.53787        -8.02758
   C       -6.77271       -19.89500       -10.42041
   N       -7.64944       -20.47809       -10.87547
   H      -16.20253        -5.65899        -5.87637
   H      -14.36032        -9.48571        -3.31945
   H      -13.96210        -5.06283        -6.64365
   H      -12.06088        -8.90309        -4.09056
   H       -8.62281        -5.49104        -8.02451
   H       -4.84951        -8.74132        -7.32812
   H       -5.16329        -8.13534        -4.75804
   H       -8.17765        -4.44301        -5.12496
   H       -8.33537        -3.65625        -2.60018
   H       -6.63022        -8.10705        -1.38111
   H       -7.38129        -9.10984        -4.19285
   H       -6.37834       -11.24334         0.41193
   H       -7.04502        -9.71752        -0.20092
   H       -4.10356       -10.58449        -0.12667
   H       -4.84591        -9.28214         0.80947
   H       -4.64410        -9.11107        -0.93545
   H       -5.80559       -14.43923        -6.83991
   H       -6.80865       -13.06107        -7.31811
   H       -7.93140       -15.50662        -5.85079
   H       -7.98036       -15.28170        -7.59596
   H       -8.84368       -14.15838        -6.53724
   H       -5.85719       -15.25425        -2.67090
   H       -5.60797       -16.04911        -5.62491
   H       -6.48798       -17.32857        -2.24783
   H       -6.08545       -22.06748         0.31261
   H       -5.24135       -23.19142        -0.79538
   H       -8.20232       -22.41895        -0.95238
   H       -7.57610       -23.95826        -0.35136
   H       -7.37043       -23.53034        -2.05356
   H       -3.90076       -20.40340        -5.18985
   H       -3.44316       -16.90376        -5.99539
   H       -4.38943       -19.47094        -7.35448
   H       -2.26971       -17.42668        -8.21222
   H       -0.99655       -19.24726       -13.09827
   H       -5.28901       -22.64006       -14.07064
   H       -0.87180       -20.66193       -15.14500
   H       -5.44314       -21.25942       -12.05671
*
