# ORCA input file
# SCF done       -214.694797367190          0.000424716789
! CAM-B3LYP def2-SVP def2/J RIJCOSX Grid4 TightSCF
%maxcore 5000
%tddft
    Mode sTDDFT
    Ethresh 5.0
    maxcore 5000
end

%pal
  nprocs 6
  end
* xyz 0 1
   C       -9.49035        -2.22434         2.29811
   N       -9.17352        -1.96783         3.58757
   C       -9.02783        -2.94569         4.63768
   C       -7.72290        -3.72508         4.50198
   C       -8.92590        -0.58597         3.79295
   O       -8.57631        -0.12141         4.85595
   C       -9.16235         0.00435         2.49413
   C       -9.48923        -1.04756         1.59090
   C       -9.69262        -0.46422         0.27674
   O       -9.96859        -0.94552        -0.79581
   N       -9.47075         0.91501         0.48131
   C       -9.61997         1.86049        -0.59883
   C      -10.96713         2.57639        -0.54794
   C       -9.18044         1.20781         1.79221
   C       -8.95256         2.51919         2.27435
   C       -8.84138         2.80460         3.60117
   C       -8.67044         4.11313         4.11942
   C       -9.29906         4.60355         5.25533
   N      -10.16311         3.91184         6.12619
   O      -10.47724         4.48037         7.15758
   O      -10.55407         2.80292         5.80458
   C       -9.07958         6.01930         5.35372
   C       -8.31038         6.41310         4.30893
   C       -7.92350         5.25665         3.54485
   C       -6.93333         5.17291         2.58997
   C       -6.43744         3.95704         1.98270
   C       -5.74600         4.26720         0.86389
   C       -5.72895         5.70159         0.72618
   N       -5.04723         6.35721        -0.31098
   O       -4.57563         5.66396        -1.19578
   O       -4.96104         7.57650        -0.27628
   C       -6.34933         6.28683         1.81998
   C       -6.38208         7.69323         2.05645
   C       -6.06507         8.28889         3.23153
   C       -6.03443         9.69649         3.41013
   S       -6.65016        10.78709         2.19508
   C       -6.27125        12.14315         3.15342
   C       -5.69363        11.81306         4.35207
   C       -5.17548        12.79676         5.21816
   N       -4.71288        13.62166         5.86568
   C       -5.56243        10.39846         4.51786
   N       -4.97658         9.79290         5.60250
   C       -4.98158        10.27727         6.87412
   C       -5.82673        11.20806         7.42996
   C       -5.42257        11.44366         8.76725
   C       -4.27473        10.54265         9.02107
   C       -4.03029         9.84536         7.88178
   C       -3.56911        10.39906        10.22071
   N       -2.98488        10.24263        11.19735
   C       -5.94757        12.35583         9.65437
   C       -5.49450        12.63607        10.97123
   C       -6.24825        13.66294        11.50476
   C       -7.23324        14.05199        10.50524
   C       -7.06654        13.28190         9.39857
   C       -7.82757        13.35753         8.22750
   N       -8.46867        13.42466         7.27607
   C       -6.10459        14.28876        12.76734
   C       -5.15436        13.94424        13.68035
   C       -4.98743        14.61630        14.90865
   C       -3.94838        14.47521        15.78257
   C       -4.09262        14.94463        17.18724
   O       -4.95995        15.66559        17.62343
   C       -2.99141        14.29589        17.92745
   C       -2.73587        14.30847        19.26838
   C       -1.62922        13.58310        19.76363
   C       -0.81304        12.84778        18.85569
   C        0.28481        12.11956        19.35651
   C        0.56181        12.12476        20.69470
   C       -0.24488        12.85392        21.59151
   C       -1.31800        13.56796        21.13731
   F        0.05016        12.84024        22.89843
   F        1.60682        11.43405        21.16887
   C       -1.09978        12.85707        17.47136
   C       -2.16800        13.57980        17.01186
   C       -2.67116        13.80658        15.65732
   C       -1.94598        13.62037        14.50936
   C       -2.31704        14.10113        13.23484
   N       -2.53406        14.51407        12.18640
   C       -0.66363        13.03075        14.48525
   N        0.37788        12.55445        14.41389
   H       -9.70519        -3.22297         1.96444
   H       -9.88331        -3.62647         4.61258
   H       -9.03671        -2.39172         5.57991
   H       -7.69059        -4.26182         3.55640
   H       -7.63809        -4.44252         5.31292
   H       -6.87433        -3.04701         4.54752
   H       -9.55077         1.27668        -1.52092
   H       -8.79397         2.57731        -0.57369
   H      -11.77426         1.85245        -0.62613
   H      -11.04430         3.27263        -1.37819
   H      -11.08484         3.12597         0.38358
   H       -8.91864         3.32163         1.55052
   H       -9.01634         2.01637         4.32539
   H       -9.50364         6.63165         6.12681
   H       -8.01051         7.41856         4.09946
   H       -6.57784         2.97656         2.39032
   H       -5.24938         3.60250         0.18353
   H       -6.52345         8.32239         1.18582
   H       -5.77164         7.67853         4.07722
   H       -6.46745        13.13417         2.79331
   H       -4.49915         8.91617         5.44168
   H       -6.66258        11.68072         6.95679
   H       -3.25691         9.11542         7.72685
   H       -4.67169        12.13907        11.44308
   H       -7.96374        14.82886        10.63831
   H       -6.76489        15.11948        12.98331
   H       -4.49913        13.11395        13.46305
   H       -5.78619        15.27297        15.23819
   H       -3.36952        14.86434        19.94257
   H        0.91440        11.55919        18.68314
   H       -1.92567        14.12063        21.83658
   H       -0.47059        12.28426        16.80922
*
