# ORCA input file
# SCF done       -189.701107445845          0.000662420660
! CAM-B3LYP def2-SVP def2/J RIJCOSX Grid4 TightSCF
%maxcore 5000
%tddft
    Mode sTDDFT
    Ethresh 5.0
    maxcore 5000
end

%pal
  nprocs 6
  end
* xyz 0 1
   C        7.91909        -3.76657         1.60510
   O        7.63145        -4.66842         2.55786
   C        6.37907        -5.11115         2.35905
   C        5.85394        -4.45926         1.23728
   C        6.86813        -3.58969         0.76051
   N        4.57303        -4.60996         0.66739
   O        3.80100        -5.39601         1.19117
   O        4.31824        -3.94326        -0.31361
   C        5.77712        -6.07064         3.21438
   C        6.41837        -6.65427         4.25917
   C        5.81701        -7.60516         5.12240
   C        6.45701        -8.63016         5.81346
   N        7.83802        -8.88059         5.91086
   O        8.61297        -8.12455         5.34748
   O        8.18275        -9.84931         6.56455
   C        5.47489        -9.48548         6.41619
   C        4.23807        -9.02953         6.08445
   C        4.37811        -7.81955         5.32133
   C        3.35836        -6.92640         5.04187
   C        3.45241        -5.50168         5.04668
   C        2.19320        -4.97421         5.04498
   C        1.24598        -6.03816         4.96178
   N       -0.14077        -5.82467         4.83043
   O       -0.54929        -4.69770         5.04496
   O       -0.84632        -6.76481         4.50922
   C        1.92194        -7.25970         4.94056
   C        1.36328        -8.53093         4.74617
   C        2.02954        -9.58985         4.17866
   C        1.46060       -10.86446         4.05616
   N        2.00962       -11.89673         3.33387
   C        3.26307       -11.86966         2.61649
   C        4.45462       -12.05486         3.55291
   C        1.21574       -13.05186         3.37363
   O        1.49343       -14.08285         2.79770
   C        0.08741       -12.68384         4.21269
   C        0.26561       -11.35492         4.61728
   C       -0.82747       -11.00087         5.50750
   O       -1.06244        -9.99794         6.14081
   N       -1.62333       -12.16102         5.55106
   C       -2.86120       -12.18467         6.29574
   C       -4.07097       -11.98793         5.38670
   C       -1.10196       -13.17575         4.79170
   C       -1.68306       -14.44883         4.67568
   C       -1.13795       -15.45028         3.91694
   C       -1.69604       -16.73957         3.79944
   C       -2.84425       -17.25025         4.38421
   C       -3.00980       -18.60381         3.99209
   C       -1.87234       -18.91495         3.10368
   C       -1.10271       -17.80192         2.99781
   C       -1.61811       -20.13869         2.47269
   N       -1.38667       -21.13255         1.94604
   C       -4.02138       -19.46324         4.36715
   C       -4.19256       -20.82509         3.99236
   C       -5.32821       -21.31334         4.59597
   C       -5.92240       -20.24879         5.38636
   C       -5.15186       -19.13660         5.25925
   C       -5.40604       -17.90745         5.87552
   N       -5.63125       -16.90701         6.39446
   C       -5.86595       -22.62673         4.49631
   O       -7.00459       -22.93349         5.17215
   C       -7.31904       -24.21226         4.93331
   C       -6.35610       -24.75413         4.07638
   C       -5.42586       -23.73280         3.79907
   N       -6.28804       -26.07313         3.56060
   O       -7.16444       -26.85483         3.87363
   O       -5.35161       -26.33284         2.83681
   C       -8.48310       -24.80650         5.52650
   C       -9.30915       -24.14273         6.33667
   H        8.89448        -3.32306         1.63178
   H        6.79516        -2.94180        -0.08749
   H        4.75929        -6.32959         2.96220
   H        7.47145        -6.45673         4.41412
   H        5.72136       -10.33418         7.02540
   H        3.30241        -9.41532         6.43954
   H        4.36763        -4.95374         5.15645
   H        1.91984        -3.93680         5.08897
   H        0.31455        -8.64136         5.00052
   H        3.01286        -9.42991         3.75985
   H        3.34273       -10.93167         2.06101
   H        3.22465       -12.69867         1.90468
   H        4.49444       -11.26742         4.30280
   H        5.37684       -12.03740         2.97935
   H        4.38257       -13.01311         4.06121
   H       -2.80025       -11.35785         7.00848
   H       -2.93695       -13.12364         6.85014
   H       -4.00443       -11.02772         4.88126
   H       -4.97965       -12.00537         5.98117
   H       -4.13025       -12.77318         4.63633
   H       -2.59816       -14.63451         5.21845
   H       -0.22262       -15.26040         3.37116
   H       -3.51517       -16.72603         5.03436
   H       -0.19995       -17.69498         2.42554
   H       -3.53495       -21.36971         3.34573
   H       -6.82091       -20.34841         5.96560
   H       -4.56163       -23.81584         3.17367
   H       -8.64707       -25.84244         5.26920
   H       -9.14207       -23.10955         6.59175
   H      -10.17217       -24.61987         6.76473
*
