# ORCA input file
# SCF done       -179.885893987218          0.000581485372
! CAM-B3LYP def2-SVP def2/J RIJCOSX Grid4 TightSCF
%maxcore 5000
%tddft
    Mode sTDDFT
    Ethresh 5.0
    maxcore 5000
end

%pal
  nprocs 6
  end
* xyz 0 1
   C        3.87697        -0.27839         9.38130
   N        4.01425        -1.59275         9.35273
   N        3.36750        -2.34779         8.64704
   C        2.09609        -1.88597         8.06250
   N        2.43223        -0.51262         7.66699
   N        3.10986         0.18199         8.40992
   C        1.48723        -2.74020         7.05986
   C        0.23079        -3.15647         7.56462
   N        0.00236        -2.63361         8.75367
   O       -0.90326        -2.71038         9.54177
   O        1.11767        -1.83515         9.09871
   C       -0.37584        -4.04314         6.61700
   C        0.51286        -4.18448         5.59904
   C        1.71088        -3.39390         5.83633
   C        2.83334        -3.22720         5.00985
   C        3.64635        -2.08004         5.01663
   C        4.55766        -2.17749         3.98450
   C        4.37381        -3.40364         3.31521
   N        5.17601        -3.71570         2.20510
   O        4.84703        -4.62148         1.45040
   O        6.16889        -3.03096         2.02855
   C        3.32510        -4.12723         3.96235
   C        2.92992        -5.46195         3.92107
   C        3.36699        -6.44481         3.04701
   C        2.96111        -7.76952         3.13726
   N        3.39006        -8.75521         2.28400
   C        4.34930        -8.60110         1.21270
   C        5.78176        -8.58155         1.73705
   C        2.83113       -10.00811         2.58323
   O        3.03601       -11.01761         1.95420
   C        1.98380        -9.74264         3.74124
   C        2.06136        -8.39508         4.05217
   C        1.17857        -8.15592         5.18447
   O        0.92564        -7.14474         5.80715
   N        0.59799        -9.40351         5.45923
   C       -0.24733        -9.55605         6.62329
   C        0.44430       -10.34581         7.72982
   C        1.07759       -10.38751         4.62185
   C        0.82981       -11.75425         4.57542
   C       -0.18254       -12.47658         5.18234
   C       -0.27775       -13.86744         5.19138
   C        0.73506       -14.85480         5.16189
   N        2.12741       -14.69016         5.26162
   O        2.57388       -13.58354         5.52924
   O        2.81688       -15.68422         5.11787
   C        0.13149       -16.12869         5.27539
   C       -1.23218       -15.97556         5.39468
   C       -1.54508       -14.59978         5.33998
   C       -2.81847       -14.02856         5.22409
   C       -3.13368       -12.88731         4.44094
   C       -4.49779       -12.75128         4.37057
   C       -5.09280       -13.77671         5.14664
   N       -6.48143       -13.87982         5.33081
   O       -7.18549       -13.12065         4.68693
   O       -6.91508       -14.71375         6.11120
   C       -4.08089       -14.58354         5.70408
   C       -4.27962       -15.60792         6.64684
   C       -3.36696       -16.04507         7.56489
   C       -3.66129       -17.08706         8.46412
   N       -2.71089       -17.61135         9.28958
   N       -3.11492       -18.24721        10.30968
   C       -4.37176       -18.59026        10.46334
   N       -5.18183       -18.50519         9.39660
   N       -4.84851       -17.71620         8.47300
   H        4.45488         0.35577        10.01912
   H       -1.34569        -4.48872         6.71030
   H        0.33868        -4.75398         4.70758
   H        3.51382        -1.23648         5.66688
   H        5.29143        -1.44676         3.69992
   H        2.23783        -5.76530         4.69556
   H        4.04059        -6.17743         2.24785
   H        4.13063        -7.68684         0.65638
   H        4.20924        -9.46291         0.55494
   H        5.93972        -7.73988         2.40676
   H        6.47117        -8.49292         0.90290
   H        5.99883        -9.50235         2.27307
   H       -1.19648       -10.01573         6.33706
   H       -0.45376        -8.53882         6.96970
   H        0.74031       -11.33360         7.38532
   H       -0.22832       -10.45518         8.57582
   H        1.33508        -9.81796         8.06086
   H        1.51124       -12.28155         3.92152
   H       -1.01214       -11.94875         5.62997
   H        0.68115       -17.05115         5.28176
   H       -1.95081       -16.76999         5.44464
   H       -2.42065       -12.30903         3.88483
   H       -5.05202       -12.01107         3.82557
   H       -5.27523       -16.03613         6.68965
   H       -2.39148       -15.59253         7.66157
   H       -4.70902       -19.05967        11.36849
*
