# ORCA input file
# SCF done       -200.160844377475          0.000506472160
! CAM-B3LYP def2-SVP def2/J RIJCOSX Grid4 TightSCF
%maxcore 5000
%tddft
    Mode sTDDFT
    Ethresh 5.0
    maxcore 5000
end

%pal
  nprocs 6
  end
* xyz 0 1
   C        3.09396        -2.05301         7.51806
   N        3.67591        -3.27995         7.62146
   C        4.37153        -3.79006         8.76921
   C        3.50846        -4.03642         6.43777
   O        3.92304        -5.17545         6.32288
   C        2.76775        -3.15869         5.56842
   C        2.52458        -1.93679         6.28525
   C        1.77292        -1.05916         5.41613
   O        1.28648         0.03726         5.58284
   N        1.65348        -1.78622         4.20942
   C        0.83611        -1.26700         3.14348
   C        2.23897        -3.02550         4.29705
   C        2.29456        -4.01040         3.23734
   C        2.33606        -5.36488         3.60622
   C        2.39999        -6.32657         2.63012
   C        2.43581        -5.96678         1.27223
   C        2.44243        -4.63009         0.90305
   C        2.36534        -3.66044         1.88409
   C        2.46060        -7.17386         0.47749
   C        2.46381        -8.28213         1.34356
   C        2.45737        -7.82737         2.78504
   C        1.23435        -8.36789         3.54625
   C       -0.08654        -7.98745         2.88779
   C        3.74659        -8.24369         3.51996
   C        5.01099        -7.77398         2.81123
   C        2.45256        -9.55882         0.83882
   C        2.39894        -9.76273        -0.55153
   C        2.41861        -8.64285        -1.39867
   C        2.45581        -7.35958        -0.89789
   C        2.29440       -11.10530        -1.06113
   C        1.88072       -11.42518        -2.31235
   C        1.71388       -12.73026        -2.81939
   C        1.18782       -12.96772        -4.06186
   C        0.93404       -14.20964        -4.69933
   C        0.35924       -14.10716        -5.92956
   C        0.12110       -12.77624        -6.34312
   S        0.67443       -11.65531        -5.11620
   C       -0.47052       -12.29045        -7.48785
   C       -1.03194       -12.97001        -8.59477
   C       -1.57087       -12.14693        -9.53249
   C       -1.48237       -10.75543        -9.23136
   S       -0.62115       -10.56057        -7.70600
   C       -2.06042        -9.73076        -9.91928
   C       -2.04530        -8.34956        -9.52170
   C       -0.99720        -7.82277        -8.75015
   C       -1.11458        -6.57028        -8.20952
   C       -2.25324        -5.78058        -8.44900
   C       -3.24656        -6.24730        -9.30271
   C       -3.13288        -7.51623        -9.83331
   C       -2.14162        -4.57210        -7.66102
   C       -0.93715        -4.62712        -6.93295
   C       -0.15709        -5.87255        -7.27711
   C        1.16288        -5.52154        -7.99126
   C        0.95626        -4.67421        -9.24058
   C        0.14612        -6.73044        -6.03511
   C       -1.10875        -7.14520        -5.27736
   C       -0.61181        -3.64591        -6.03457
   C       -1.48979        -2.56780        -5.82987
   C       -2.65718        -2.49482        -6.60538
   C       -2.99237        -3.48436        -7.50809
   C       -1.25203        -1.56714        -4.82164
   C       -0.35917        -1.69830        -3.81339
   C       -0.18138        -0.74045        -2.78113
   N        0.71154        -0.94343        -1.74703
   C        1.57480        -2.07958        -1.58933
   C        0.69675         0.10071        -0.80865
   O        1.38910         0.10379         0.18965
   C       -0.27779         1.02941        -1.33633
   C       -0.80210         0.47593        -2.55359
   C       -1.77918         1.39444        -3.07141
   O       -2.49414         1.37858        -4.05698
   N       -1.78049         2.45374        -2.13333
   C       -2.62473         3.60702        -2.27271
   C       -0.89948         2.22639        -1.12214
   H        3.13420        -1.35325         8.33226
   H        3.71377        -3.82845         9.64002
   H        5.24154        -3.17362         9.00431
   H        4.70104        -4.79923         8.52075
   H        0.16936        -0.52625         3.58764
   H        0.24908        -2.06523         2.68991
   H        1.42552        -0.76246         2.37477
   H        2.31899        -5.63306         4.64935
   H        2.51801        -4.35129        -0.13674
   H        2.40015        -2.62023         1.60443
   H        1.25997        -7.97678         4.56499
   H        1.30989        -9.45579         3.60389
   H       -0.19409        -6.90598         2.84078
   H       -0.92001        -8.39145         3.45789
   H       -0.13942        -8.38127         1.87488
   H        3.76218        -9.33224         3.60966
   H        3.72381        -7.81827         4.52462
   H        5.06773        -8.18251         1.80406
   H        5.88837        -8.09781         3.36569
   H        5.03033        -6.68870         2.74636
   H        2.45207       -10.41498         1.49866
   H        2.41820        -8.78748        -2.46794
   H        2.47272        -6.51232        -1.56787
   H        2.50970       -11.90378        -0.36167
   H        1.61000       -10.63041        -2.99558
   H        1.98988       -13.57711        -2.20576
   H        1.18164       -15.14122        -4.22059
   H        0.09464       -14.94638        -6.54858
   H       -1.03317       -14.04412        -8.65724
   H       -2.05057       -12.48687       -10.43387
   H       -2.67067        -9.99489       -10.77352
   H       -0.09756        -8.39589        -8.59550
   H       -4.10929        -5.63807        -9.52860
   H       -3.92024        -7.90396       -10.46409
   H        1.66674        -6.45146        -8.26286
   H        1.80637        -4.98369        -7.29154
   H        0.33282        -5.19880        -9.96117
   H        1.91426        -4.45754        -9.70778
   H        0.47375        -3.73149        -8.99176
   H        0.80255        -6.16441        -5.37044
   H        0.68314        -7.62685        -6.35095
   H       -1.66948        -6.27216        -4.94965
   H       -0.83922        -7.73293        -4.40293
   H       -1.75226        -7.75132        -5.91027
   H        0.31885        -3.70138        -5.49131
   H       -3.31731        -1.65183        -6.46236
   H       -3.90775        -3.41763        -8.07705
   H       -1.87121        -0.68040        -4.85690
   H        0.24484        -2.59054        -3.73946
   H        2.22896        -2.19985        -2.45545
   H        0.99537        -2.99308        -1.43446
   H        2.18550        -1.88611        -0.70753
   H       -3.20257         3.47260        -3.18728
   H       -2.02935         4.51879        -2.35212
   H       -3.30605         3.69688        -1.42428
   H       -0.78031         2.93494        -0.32336
*
