# ORCA input file
# SCF done       -202.219936750305          0.000845455948
! CAM-B3LYP def2-SVP def2/J RIJCOSX Grid4 TightSCF
%maxcore 5000
%tddft
    Mode sTDDFT
    Ethresh 5.0
    maxcore 5000
end

%pal
  nprocs 6
  end
* xyz 0 1
   C        7.31651        -2.58509        -3.98453
   S        7.52267        -0.88396        -4.07790
   C        7.19155        -0.71563        -2.37146
   C        6.94619        -1.94391        -1.79464
   C        7.01939        -3.00904        -2.72503
   C        6.80957        -4.43420        -2.32061
   C        5.93723        -4.49099        -1.06440
   C        4.48781        -4.06989        -1.28258
   O        3.85764        -3.50199        -0.42631
   C        3.87527        -4.43728        -2.60918
   C        6.59158        -3.63644         0.02679
   C        6.58905        -2.15520        -0.35634
   C        7.19811         0.55825        -1.72945
   C        7.49440         1.71997        -2.34212
   C        7.54531         3.02675        -1.73234
   C        8.03195         4.10255        -2.49376
   C        8.13017         5.35086        -1.93155
   C        7.73682         5.56472        -0.59857
   C        7.23271         4.51574         0.15930
   C        7.14265         3.26352        -0.40978
   C        7.96852         6.94890        -0.26567
   C        8.50622         7.60125        -1.39277
   C        8.64081         6.63359        -2.54682
   C        7.77389         7.06498        -3.74450
   C        6.30287         7.22872        -3.38177
   C       10.10733         6.49460        -2.99538
   C       11.03304         6.06196        -1.86470
   C        8.83764         8.93031        -1.34383
   C        8.64477         9.65131        -0.14874
   C        8.10230         8.98095         0.96424
   C        7.76248         7.64810         0.91722
   C        8.98698        11.03140        -0.00144
   C        9.49662        11.87519        -0.94419
   C        9.81039        13.20997        -0.65149
   C       10.31185        14.13250        -1.53991
   C       10.64566        15.47451        -1.25228
   C       11.11577        16.17658        -2.32388
   C       11.17366        15.42723        -3.51540
   S       10.62421        13.79498        -3.23650
   C       11.58237        15.87672        -4.76613
   C       12.03449        17.16776        -5.09752
   C       12.35026        17.32888        -6.41796
   C       12.16088        16.17646        -7.20196
   S       11.57737        14.86369        -6.18415
   C       12.29339        15.91806        -8.55457
   C       12.66751        16.71047        -9.64631
   C       12.52813        16.12431       -10.94997
   C       12.74489        16.87192       -12.16112
   N       12.54173        16.28177       -13.34920
   C       12.19585        15.01926       -13.40103
   C       12.02755        14.26548       -12.20057
   N       12.18012        14.83964       -11.02378
   C       11.68681        12.89444       -12.25492
   N       11.40954        11.78433       -12.32962
   C       11.98555        14.41106       -14.66343
   N       11.80895        13.88376       -15.66534
   C       13.13833        18.22907       -12.15807
   C       13.44415        18.75784       -10.88491
   C       13.20778        18.02748        -9.65547
   N       13.62526        18.71467        -8.59920
   S       14.26868        20.11326        -9.07719
   N       14.03979        19.92769       -10.65732
   C       13.28134        18.95267       -13.38401
   S       13.71220        18.09241       -14.83192
   C       13.72809        19.55678       -15.76583
   C       13.36923        20.64689       -14.98972
   C       13.10904        20.30452       -13.64962
   C       12.60441        21.31144       -12.66478
   C       12.00953        22.52944       -13.36634
   C       10.67624        22.32323       -14.07896
   O       10.20906        23.19913       -14.76468
   C        9.96820        21.01113       -13.87390
   C       13.03985        23.06038       -14.36946
   C       13.24402        22.05002       -15.49664
   C       14.06390        19.42115       -17.15600
   C       13.98072        20.33317       -18.12465
   H        7.43302        -3.17867        -4.86993
   H        7.78135        -4.88145        -2.08491
   H        6.38591        -5.00851        -3.14473
   H        5.88449        -5.53185        -0.71802
   H        4.08526        -5.47359        -2.86123
   H        4.29540        -3.79860        -3.38432
   H        2.80071        -4.27782        -2.56870
   H        7.61707        -3.98127         0.17472
   H        6.05004        -3.75981         0.96513
   H        7.28296        -1.61119         0.28925
   H        5.58939        -1.74557        -0.18170
   H        6.95282         0.53660        -0.67737
   H        7.74763         1.68756        -3.39546
   H        8.33617         3.92994        -3.51644
   H        6.91820         4.67611         1.17996
   H        6.74776         2.44974         0.17834
   H        7.87080         6.31541        -4.53254
   H        8.15911         8.00989        -4.13340
   H        5.89285         6.29310        -3.00785
   H        5.73326         7.52818        -4.25839
   H        6.17777         7.98925        -2.61390
   H       10.44467         7.45366        -3.39388
   H       10.15677         5.76204        -3.80354
   H       11.01518         6.78694        -1.05367
   H       12.05425         5.97833        -2.22909
   H       10.72894         5.09588        -1.46766
   H        9.25191         9.42363        -2.20948
   H        7.95300         9.53692         1.87910
   H        7.34875         7.15470         1.78392
   H        8.81896        11.44437         0.98698
   H        9.67626        11.53710        -1.95535
   H        9.64998        13.55528         0.36253
   H       10.52872        15.88145        -0.26340
   H       11.41528        17.20806        -2.28393
   H       12.11829        17.94997        -4.36461
   H       12.72124        18.23889        -6.84951
   H       12.00792        14.91510        -8.85242
   H       13.44184        21.64708       -12.04713
   H       11.88502        20.84611       -11.98899
   H       11.81923        23.30865       -12.61732
   H       10.60625        20.18747       -14.18542
   H        9.04817        21.00017       -14.45301
   H        9.73082        20.87884       -12.82029
   H       13.98281        23.23715       -13.84896
   H       12.69385        24.00459       -14.79097
   H       14.13971        22.31259       -16.06479
   H       12.38943        22.10118       -16.17914
   H       14.41004        18.42705       -17.41378
   H       13.61972        21.33250       -17.97301
   H       14.26861        20.08110       -19.13085
*
