# ORCA input file
# SCF done       -189.146904864194          0.000370124043
! CAM-B3LYP def2-SVP def2/J RIJCOSX Grid4 TightSCF
%maxcore 5000
%tddft
    Mode sTDDFT
    Ethresh 5.0
    maxcore 5000
end

%pal
  nprocs 6
  end
* xyz 0 1
   C       -3.90029        -0.91838         0.67723
   C       -4.17746        -1.88551         1.60921
   C       -3.40939        -3.05582         1.78565
   N       -2.82973        -4.02710         1.98215
   C       -5.24530        -1.86786         2.53099
   N       -6.08089        -1.93676         3.31621
   C       -2.77782        -0.94615        -0.25545
   C       -2.80679         0.23606        -1.03802
   C       -1.87421         0.50841        -2.00978
   C       -0.86196        -0.43184        -2.22278
   C       -0.84018        -1.61040        -1.43903
   C       -1.78387        -1.88482        -0.45527
   S        0.49556        -2.62863        -1.87365
   C        1.00312        -1.49223        -3.07490
   C        0.21431        -0.39839        -3.15357
   C       -3.95572         1.05469        -0.62960
   O       -4.27460         2.13639        -1.09562
   C       -4.63408         0.31107         0.43844
   C       -5.77485         0.70791         1.08824
   C       -6.53903         1.87248         0.93898
   S       -6.22416         3.20083        -0.14611
   C       -7.60987         4.06775         0.42274
   C       -8.29243         3.34915         1.40893
   C       -7.69870         2.12610         1.69789
   S       -8.25578         0.94967         2.87667
   C       -9.72307         1.56203         3.65727
   O      -10.20969         0.86291         4.50093
   C      -10.38133         2.88356         3.32158
   O      -11.39222         3.19642         3.88904
   S       -9.74820         4.02091         2.13357
   C       -7.96762         5.34874        -0.06716
   C       -7.27837         5.98141        -1.04487
   C       -7.53904         7.28373        -1.58936
   C       -6.72350         7.73399        -2.64432
   C       -6.91926         8.98154        -3.18089
   C       -7.96507         9.79722        -2.70433
   C       -8.77909         9.36529        -1.66345
   C       -8.55768         8.12324        -1.11030
   C       -8.00137        11.00780        -3.48867
   C       -6.98180        10.94162        -4.45580
   C       -6.17044         9.67424        -4.29595
   C       -4.74841        10.10235        -3.86014
   C       -3.79598         8.97268        -3.49308
   C       -6.13583         8.83494        -5.58194
   C       -7.53158         8.53386        -6.11613
   C       -6.80851        11.96434        -5.35146
   C       -7.65324        13.09020        -5.30823
   C       -8.66497        13.13873        -4.33449
   C       -8.84375        12.11267        -3.43225
   C       -7.41812        14.12963        -6.26805
   C       -8.07559        15.31199        -6.39769
   C       -7.80010        16.31743        -7.35300
   C       -6.84408        16.35197        -8.33708
   C       -6.65009        17.42678        -9.24808
   C       -5.63989        17.24817       -10.14130
   C       -4.96485        16.01390        -9.99647
   S       -5.66528        15.09754        -8.68293
   C       -3.90926        15.49565       -10.71378
   C       -3.19666        16.05064       -11.80135
   C       -2.20310        15.25239       -12.27469
   C       -2.06518        14.01110       -11.59085
   S       -3.26212        13.91351       -10.31511
   C       -1.15333        13.03313       -11.86642
   C       -1.01892        11.79613       -11.18492
   O       -0.03958        10.94264       -11.61344
   C       -0.07268         9.85201       -10.85936
   C       -1.07270         9.96390        -9.92004
   C       -1.69052        11.22126       -10.12457
   N       -1.41675         9.00584        -8.93798
   O       -0.76986         7.97715        -8.90966
   O       -2.33251         9.27153        -8.18681
   H       -1.92575         1.41869        -2.58663
   H       -1.72128        -2.79770         0.11267
   H        1.87520        -1.71803        -3.65726
   H        0.37505         0.41233        -3.84089
   H       -6.16684         0.03451         1.84135
   H       -8.83570         5.80083         0.39191
   H       -6.42961         5.45839        -1.47068
   H       -5.95860         7.07557        -3.02750
   H       -9.57694         9.99303        -1.29574
   H       -9.18376         7.78947        -0.29780
   H       -4.84808        10.77309        -3.00199
   H       -4.31351        10.67625        -4.68083
   H       -4.15183         8.42623        -2.62387
   H       -2.82228         9.39294        -3.25059
   H       -3.66418         8.28311        -4.32187
   H       -5.62396         7.89409        -5.37883
   H       -5.56052         9.37050        -6.33907
   H       -8.11636         7.98804        -5.37814
   H       -7.46355         7.92839        -7.01679
   H       -8.06007         9.45318        -6.35930
   H       -6.02954        11.91938        -6.09886
   H       -9.31906        13.99582        -4.29163
   H       -9.62778        12.16713        -2.69161
   H       -6.60844        13.91488        -6.94962
   H       -8.88849        15.53898        -5.72122
   H       -8.43117        17.19703        -7.30636
   H       -7.27243        18.30392        -9.20854
   H       -5.36184        17.96247       -10.89547
   H       -3.43875        17.01965       -12.20022
   H       -1.55684        15.50627       -13.09609
   H       -0.45873        13.19624       -12.67766
   H        0.62956         9.06527       -11.05163
   H       -2.50627        11.61261        -9.55683
*
