# ORCA input file
# SCF done       -195.100752378713          0.000794636637
! CAM-B3LYP def2-SVP def2/J RIJCOSX Grid4 TightSCF
%maxcore 5000
%tddft
    Mode sTDDFT
    Ethresh 5.0
    maxcore 5000
end

%pal
  nprocs 6
  end
* xyz 0 1
   C      -16.04952         6.81618        -2.62381
   C      -17.12366         6.31769        -1.93336
   C      -18.44008         6.80704        -2.05807
   N      -19.52929         7.16192        -2.12675
   C      -17.04542         5.25541        -1.00968
   N      -17.02410         4.39440        -0.25069
   C      -16.08844         7.92219        -3.57858
   C      -14.77166         8.16737        -4.04829
   C      -14.48166         9.13638        -4.97827
   C      -15.54813         9.86949        -5.50570
   C      -16.85885         9.62146        -5.03322
   C      -17.14628         8.66784        -4.06250
   S      -18.02835        10.60380        -5.85465
   C      -16.76481        11.29039        -6.83789
   C      -15.52293        10.83905        -6.54292
  Br      -17.20021        12.51168        -8.18422
   C      -13.86039         7.20362        -3.42691
   O      -12.64899         7.10489        -3.61302
   C      -14.67958         6.35342        -2.56074
   C      -14.15587         5.27444        -1.88537
   N      -12.86281         4.95699        -2.01239
   C      -12.20472         3.89845        -1.47047
   S      -12.94052         2.85045        -0.30280
   C      -11.48028         1.91290        -0.25866
   N      -11.45428         0.80330         0.60244
   O      -10.43678         0.14171         0.63958
   O      -12.46471         0.59401         1.24826
   C      -10.49673         2.37141        -1.09061
   C      -10.88939         3.52213        -1.80295
   C      -10.14206         4.25422        -2.77405
   C       -8.94256         3.98127        -3.33498
   C       -8.39616         4.82113        -4.36042
   C       -7.09722         4.60682        -4.87198
   C       -6.51322         5.47320        -5.86770
   N       -5.27409         5.22468        -6.32165
   C       -4.59494         4.22063        -5.82977
   C       -5.16646         3.37529        -4.82044
   N       -6.38365         3.57747        -4.38341
   C       -4.41336         2.29417        -4.29796
   N       -3.77680         1.43121        -3.89520
   C       -3.29006         3.96335        -6.31819
   N       -2.23171         3.72951        -6.68872
   C       -7.19546         6.58750        -6.40819
   C       -8.49537         6.79714        -5.91078
   C       -9.07955         5.92584        -4.91577
   N      -10.30310         6.33720        -4.58143
   S      -10.67920         7.66956        -5.36862
   N       -9.31787         7.80720        -6.21431
   C       -6.52103         7.50666        -7.28440
   S       -4.82905         7.81829        -6.97470
   C       -4.80422         9.05741        -8.14937
   C       -6.00202         9.20004        -8.78954
   C       -6.98369         8.29968        -8.31559
   C       -8.30510         8.19135        -9.00558
   C       -8.70564         9.54800        -9.59270
   C       -7.60031        10.00513       -10.56247
   O       -8.06676        11.17419       -11.21478
   C       -7.31705        11.56450       -12.33922
   C       -6.28724        10.25502        -9.81185
   N       -9.94170         9.49874       -10.34793
   C      -11.18493         9.27544        -9.82996
   C      -11.57195         8.57644        -8.70898
   C      -13.00436         8.52677        -8.67336
   C      -13.86496         7.88240        -7.83594
   C      -15.25497         8.03236        -8.07782
   C      -16.35322         7.54462        -7.40996
   C      -17.55062         8.05002        -8.03899
   C      -17.17079         8.83219        -9.10448
   C      -15.73540         8.85212        -9.17469
   C      -14.87184         9.46162       -10.04090
   C      -13.48610         9.28912        -9.81508
   C      -12.37748         9.71600       -10.51454
   C      -18.90518         7.80965        -7.60874
   C      -19.26155         7.11001        -6.53374
   H      -13.47060         9.30818        -5.31265
   H      -18.16226         8.51675        -3.73838
   H      -14.63057        11.15027        -7.05439
   H      -14.76409         4.63857        -1.25517
   H      -12.33794         5.59218        -2.63795
   H       -9.53650         1.89645        -1.17459
   H      -10.62568         5.14795        -3.13318
   H       -8.34167         3.13066        -3.05063
   H       -3.90252         9.61306        -8.31580
   H       -9.05477         7.84163        -8.30729
   H       -8.22946         7.46104        -9.81762
   H       -8.78460        10.27904        -8.77274
   H       -7.45097         9.21135       -11.31428
   H       -7.87845        12.36647       -12.81520
   H       -7.19968        10.73253       -13.04380
   H       -6.32679        11.93829       -12.06182
   H       -6.37229        11.22306        -9.30611
   H       -5.45505        10.32287       -10.51583
   H       -9.92690        10.16408       -11.11079
   H      -10.94708         8.13743        -7.96220
   H      -13.51834         7.27184        -7.01358
   H      -16.33353         6.89124        -6.55636
   H      -17.82521         9.35378        -9.77861
   H      -15.22116        10.06065       -10.86989
   H      -12.37607        10.28916       -11.42506
   H      -19.66829         8.26548        -8.22716
   H      -18.53939         6.64048        -5.88682
   H      -20.29398         6.97985        -6.26173
*
