# ORCA input file
# SCF done       -193.745724037010          0.000389556406
! CAM-B3LYP def2-SVP def2/J RIJCOSX Grid4 TightSCF
%maxcore 5000
%tddft
    Mode sTDDFT
    Ethresh 5.0
    maxcore 5000
end

%pal
  nprocs 6
  end
* xyz 0 1
   C       -0.18427         1.57765         0.67061
   C        0.60252         1.91025         1.73709
   F        1.09407         3.15086         1.85079
   C        0.90715         0.95611         2.72920
   F        1.68180         1.31032         3.76327
   C        0.41989        -0.31764         2.64092
   C       -0.39352        -0.69169         1.55343
   C       -0.70262         0.27211         0.54994
   C       -1.51575        -0.08041        -0.55052
   C       -2.00893        -1.35637        -0.64348
   C       -1.69356        -2.31238         0.36158
   C       -0.90557        -2.00240         1.43264
   C       -2.31140        -3.60981         0.02358
   O       -2.12672        -4.66098         0.59545
   C       -3.07305        -3.37071        -1.23531
   C       -2.86067        -1.99155        -1.64352
   C       -3.41134        -1.36841        -2.73079
   C       -4.27578        -1.97455        -3.66788
   N       -4.98660        -2.38887        -4.46851
   C       -3.19348        -0.01354        -3.06181
   N       -3.05274         1.07831        -3.38617
   C       -3.72440        -4.33697        -1.93069
   C       -4.08231        -5.62220        -1.39730
   C       -4.03022        -6.76893        -2.17487
   C       -4.32227        -8.02884        -1.66623
   C       -4.70557        -8.20790        -0.34298
   C       -4.86290        -7.03408         0.45405
   N       -5.30417        -7.16535         1.71124
   C       -5.47133        -6.09498         2.43978
   C       -5.25843        -4.81626         1.89373
   N       -4.82883        -4.65177         0.67201
   C       -4.57037        -5.74577        -0.06389
   C       -4.97869        -9.48371         0.25099
   C       -4.77913       -10.75125        -0.29246
   C       -4.06292       -11.01362        -1.47147
   N       -3.41399       -11.25311        -2.38738
   C       -5.24109       -11.78996         0.55728
   C       -5.74028       -11.27352         1.74911
   S       -5.67659        -9.55203         1.85213
   S       -6.25837       -12.46689         2.89278
   C       -5.80997       -13.69470         1.75322
   C       -5.30882       -13.21556         0.54696
   C       -5.02872       -14.27914        -0.35188
   C       -4.81530       -14.08623        -1.72643
   N       -4.80971       -13.88981        -2.85768
   C       -5.27152       -15.52603         0.21978
   S       -5.96041       -15.41047         1.82230
   C       -5.01803       -16.80931        -0.34166
   C       -5.65029       -17.96037         0.16928
   C       -5.47884       -19.26249        -0.41790
   N       -6.13670       -20.30466         0.08864
   C       -6.92106       -20.13534         1.13463
   C       -7.06357       -18.85011         1.74141
   N       -6.43848       -17.81051         1.24522
   C       -7.88170       -18.68535         2.88712
   N       -8.55252       -18.58718         3.81015
   C       -7.61829       -21.25202         1.65318
   N       -8.19345       -22.14171         2.09053
   C       -4.60742       -19.48249        -1.53501
   C       -3.90267       -18.33422        -1.97739
   C       -4.09471       -17.03136        -1.38518
   N       -3.27235       -16.12568        -1.90740
   S       -2.38736       -16.80283        -3.05703
   N       -2.97779       -18.29827        -2.93040
   C       -4.51465       -20.77835        -2.05417
   C       -3.75675       -21.31656        -3.07455
   C       -3.83791       -22.69244        -3.41764
   C       -3.01760       -23.07462        -4.43309
   C       -2.24306       -22.01107        -4.94725
   S       -2.59561       -20.51526        -4.09877
   C       -1.31401       -22.06382        -5.96730
   C       -0.92984       -23.20654        -6.72436
   C        0.01235       -22.96053        -7.66195
   C        0.44525       -21.59370        -7.71648
   S       -0.43027       -20.65583        -6.49348
   C        1.35838       -21.05472        -8.53648
   H       -0.40806         2.31988        -0.07966
   H        0.66322        -1.03632         3.40775
   H       -1.72432         0.66944        -1.29625
   H       -0.67739        -2.74881         2.17834
   H       -4.00750        -4.15902        -2.96024
   H       -3.70642        -6.68821        -3.20217
   H       -4.23663        -8.88065        -2.32020
   H       -5.81050        -6.23942         3.45550
   H       -5.46562        -3.91902         2.46077
   H       -5.15911       -21.48799        -1.54733
   H       -4.50476       -23.35522        -2.89470
   H       -2.95410       -24.07797        -4.81400
   H       -1.36783       -24.17169        -6.54318
   H        0.42729       -23.69598        -8.32779
   H        1.86728       -21.66008        -9.26589
   H        1.60967       -20.01073        -8.49468
*
