# ORCA input file
# SCF done       -138.310541675932          0.000431882684
! CAM-B3LYP def2-SVP def2/J RIJCOSX Grid4 TightSCF
%maxcore 5000
%tddft
    Mode sTDDFT
    Ethresh 5.0
    maxcore 5000
end

%pal
  nprocs 6
  end
* xyz 0 1
   C       12.51940        -6.66270        10.04850
   C       12.49507        -6.29799         8.76001
   C       13.52194        -5.61413         8.02417
   C       13.21615        -5.38048         6.73086
   C       11.93093        -5.85662         6.33479
   S       11.12203        -6.61668         7.68626
   C       11.35665        -5.77104         5.09101
   C       11.91342        -5.19822         3.91988
   C       11.10175        -5.29292         2.83757
   C        9.86239        -5.94669         3.08975
   S        9.74751        -6.41955         4.76272
   C        8.90225        -6.20469         2.14649
   C        7.68599        -6.88269         2.37530
   S        7.23983        -7.37200         3.92690
   C        6.84415        -7.18655         1.27817
   C        5.69373        -7.89936         1.40771
   S        5.03584        -8.46900         2.92280
   C        3.73972        -9.21620         2.01740
   C        3.87285        -9.03236         0.67978
   O        4.95865        -8.25710         0.34883
   C        3.14957        -9.56438        -0.41872
   C        2.16557       -10.50941        -0.36120
   C        1.61886       -11.20850        -1.47244
   C        0.80874       -12.24773        -1.13833
   C        0.63237       -12.41234         0.25509
   S        1.48047       -11.14629         1.12308
   C        0.04334       -13.45699         0.93113
   C       -0.39223       -14.69486         0.39740
   C       -0.61165       -15.64127         1.34370
   C       -0.38267       -15.20766         2.68271
   S       -0.00469       -13.49811         2.67933
   C       -0.45685       -16.04112         3.76306
   C       -0.37879       -15.79434         5.15745
   S       -1.21711       -16.90412         6.10540
   C        0.23618       -14.71314         5.85256
   C        1.29194       -13.92014         5.55072
   S        1.83094       -12.69075         6.69991
   C        3.02641       -12.18238         5.56588
   C        2.99406       -12.93538         4.43365
   O        2.05368       -13.93044         4.44716
   C        3.77367       -12.70489         3.27483
   C        3.73608       -13.43192         2.12095
   C        4.34319       -13.05340         0.89003
   C        4.07703       -13.89211        -0.14043
   C        3.28328       -15.01282         0.22004
   S        2.88570       -14.95055         1.92809
   C        2.85302       -16.03028        -0.59316
   C        3.07354       -16.16729        -1.99405
   C        2.53083       -17.27731        -2.53791
   C        1.83702       -18.11777        -1.60301
   S        1.92412       -17.38729         0.00997
   C        1.21101       -19.27534        -1.85122
   H       13.37603        -6.45126        10.66411
   H       11.69380        -7.17665        10.50553
   H       14.44291        -5.33009         8.50195
   H       13.86532        -4.88114         6.03362
   H       12.88762        -4.74228         3.90703
   H       11.34418        -4.92330         1.85638
   H        9.10364        -5.87964         1.13371
   H        7.14121        -6.88192         0.28591
   H        2.97609        -9.75848         2.53031
   H        3.48954        -9.24441        -1.39332
   H        1.88631       -10.94361        -2.48012
   H        0.34468       -12.90857        -1.84852
   H       -0.47257       -14.86057        -0.66209
   H       -0.89866       -16.65628         1.13538
   H       -0.76709       -17.05293         3.52592
   H       -0.13805       -14.58036         6.85964
   H        3.67764       -11.36109         5.77752
   H        4.40376       -11.82901         3.30762
   H        4.92141       -12.14962         0.81453
   H        4.42715       -13.74479        -1.14630
   H        3.62702       -15.42851        -2.54616
   H        2.59189       -17.54778        -3.57718
   H        1.18727       -19.68435        -2.84585
   H        0.72156       -19.83205        -1.07349
*
