# ORCA input file
# SCF done       -161.078337228204          0.000579105186
! CAM-B3LYP def2-SVP def2/J RIJCOSX Grid4 TightSCF
%maxcore 5000
%tddft
    Mode sTDDFT
    Ethresh 5.0
    maxcore 5000
end

%pal
  nprocs 6
  end
* xyz 0 1
   C       11.79618        -7.36025         7.30450
   C       11.62065        -6.64880         6.18355
   C       12.43918        -5.57951         5.68490
   C       12.01835        -5.05025         4.51658
   C       10.83825        -5.64943         3.98939
   S       10.27883        -6.92340         5.06101
   C       10.19462        -5.33414         2.82178
   C       10.55588        -4.34930         1.86390
   C        9.73241        -4.29544         0.79110
   C        8.65286        -5.23119         0.81082
   S        8.73996        -6.16727         2.30210
   C        7.75819        -5.38360        -0.20335
   C        6.65319        -6.28676        -0.33326
   C        6.11950        -7.01682         0.74248
   C        5.06489        -7.86710         0.52749
   C        4.52041        -8.03315        -0.75824
   C        5.02691        -7.30799        -1.82903
   C        6.07190        -6.43889        -1.60553
   C        3.44202        -8.99188        -0.68146
   C        3.29764        -9.39960         0.65698
   C        4.32867        -8.72360         1.53135
   C        3.67035        -7.86254         2.62470
   C        2.71761        -6.81627         2.05903
   C        5.27110        -9.75150         2.18531
   C        5.95204       -10.65994         1.16889
   C        2.31510       -10.29074         1.01102
   C        1.47241       -10.82759         0.02412
   C        1.64216       -10.42380        -1.30723
   C        2.60903        -9.50721        -1.66477
   C        0.44105       -11.75984         0.41202
   C       -0.17223       -12.63672        -0.40877
   C       -1.21976       -13.49736         0.01286
   S       -1.82114       -14.75118        -1.11382
   C       -2.95355       -15.19085         0.09311
   C       -2.80176       -14.38257         1.22184
   N       -1.83915       -13.46586         1.15704
   C       -3.81514       -14.73332         2.26661
   C       -4.56775       -15.83383         1.57820
   C       -4.02465       -16.08699         0.32337
   S       -4.84107       -17.34881        -0.50029
   C       -5.93157       -17.55003         0.85748
   C       -5.65591       -16.65803         1.86931
   C       -6.93478       -18.58944         0.84316
   C       -7.59914       -19.01671        -0.27644
   C       -7.46931       -18.55101        -1.68261
   S       -8.74137       -20.26423         0.09535
   C       -8.32259       -20.23094         1.77387
   C       -8.99465       -21.15241         2.72988
   C       -7.34939       -19.30547         2.02700
   C       -6.82255       -19.06441         3.36098
   S       -7.95119       -18.68568         4.63889
   C       -6.71263       -18.40371         5.75300
   C       -5.46916       -18.58864         5.19428
   N       -4.29948       -18.37697         5.94753
   O       -4.42448       -18.14957         7.13634
   O       -3.21661       -18.42074         5.37345
   C       -5.51536       -18.99268         3.81069
   N       -4.37876       -19.26644         3.11903
   C       -4.25368       -19.92299         1.91670
   C       -3.08818       -20.05525         1.29482
   H       12.62803        -7.16028         7.95664
   H       11.12123        -8.14707         7.58707
   H       13.30993        -5.25808         6.22872
   H       12.51263        -4.24463         4.00260
   H       11.41770        -3.72018         1.99827
   H        9.85523        -3.61672        -0.03517
   H        7.93095        -4.74536        -1.06288
   H        6.52173        -6.88989         1.73462
   H        4.60697        -7.41809        -2.81796
   H        6.47297        -5.86569        -2.42973
   H        4.45674        -7.36619         3.19705
   H        3.12450        -8.51912         3.30553
   H        3.24584        -6.13563         1.39493
   H        2.27623        -6.23628         2.86639
   H        1.91580        -7.29049         1.49705
   H        4.69427       -10.35958         2.88547
   H        6.03145        -9.21290         2.75467
   H        5.21525       -11.22949         0.60628
   H        6.61322       -11.35827         1.67671
   H        6.54303       -10.07484         0.46777
   H        2.18866       -10.60057         2.03861
   H        0.98095       -10.81593        -2.06480
   H        2.71306        -9.19475        -2.69336
   H        0.15291       -11.76096         1.45465
   H        0.12178       -12.73673        -1.44385
   H       -4.44999       -13.88126         2.51540
   H       -3.34083       -15.07616         3.18846
   H       -6.24280       -16.58657         2.76666
   H       -6.58875       -18.98992        -2.15399
   H       -7.36518       -17.46778        -1.72253
   H       -8.34564       -18.84531        -2.25562
   H       -9.32322       -22.05263         2.21555
   H       -9.87131       -20.67632         3.17162
   H       -8.31663       -21.43084         3.53483
   H       -6.91622       -18.10879         6.76311
   H       -3.51664       -19.00117         3.59088
   H       -5.16373       -20.34745         1.52180
   H       -2.18353       -19.63195         1.69634
   H       -3.01142       -20.58773         0.36664
*
