# ORCA input file
# SCF done       -222.914600714182          0.000373613181
! CAM-B3LYP def2-SVP def2/J RIJCOSX Grid4 TightSCF
%maxcore 5000
%tddft
    Mode sTDDFT
    Ethresh 5.0
    maxcore 5000
end

%pal
  nprocs 6
  end
* xyz 0 1
   C       -8.60516         3.56977         0.84923
   O       -7.41424         3.27845         0.33694
   C       -7.57160         2.25267        -0.53674
   C       -8.89697         1.88662        -0.57460
   C       -9.57565         2.74557         0.33229
   C      -11.00295         2.80218         0.69534
   O      -11.45951         3.62737         1.43765
   O      -11.78687         1.85760         0.14175
   C       -6.41379         1.75903        -1.22774
   C       -6.44974         0.73838        -2.09680
   C       -5.31492         0.17465        -2.80338
   C       -4.14379         0.88902        -3.10834
   C       -3.97268         2.35510        -2.95185
   O       -2.98990         2.83652        -2.42027
   C       -4.98158         3.22118        -3.58603
   C       -6.05990         2.83478        -4.33460
   S       -6.94838         4.16432        -4.93498
   C       -5.84133         5.27537        -4.21537
   C       -4.85554         4.64703        -3.53049
   C       -3.68966         5.33490        -2.88894
   O       -2.84097         5.86182        -3.57135
   C       -3.67152         5.35448        -1.41109
   C       -2.47808         5.67859        -0.76799
   C       -2.41654         5.70640         0.61082
   C       -3.54760         5.41993         1.35936
   C       -4.74041         5.10918         0.72610
   C       -4.80606         5.07393        -0.65419
   C       -3.05900         0.20918        -3.65712
   C       -3.13418        -1.13188        -3.96937
   C       -4.31158        -1.84556        -3.73709
   C       -5.37943        -1.17361        -3.15148
   C       -4.43312        -3.26304        -4.09144
   C       -5.13082        -4.12529        -3.29041
   C       -5.25793        -5.48695        -3.64856
   C       -5.91339        -6.53415        -3.02927
   C       -6.76037        -6.45007        -1.80133
   C       -8.22545        -6.79492        -2.12975
   N       -9.12255        -6.22964        -1.12893
   C       -6.20332        -7.32718        -0.66954
   N       -4.78750        -7.05404        -0.48947
   C       -5.72909        -7.69434        -3.87169
   C       -6.15792        -8.96417        -3.76036
   C       -5.95491        -9.96137        -4.84492
   C       -5.09635        -9.48801        -5.97816
   C       -4.62749        -8.22973        -6.05101
   C       -4.93084        -7.28888        -5.03752
   C       -4.63706        -5.94984        -4.88361
   C       -3.91587        -5.03371        -5.68364
   C       -3.81879        -3.73699        -5.29558
   C       -7.30391       -10.37727        -5.39738
   C       -8.39927        -9.64603        -5.23364
   C       -9.72788        -9.99288        -5.72347
   C      -10.84844        -9.79417        -4.89764
   C      -10.67540        -9.35425        -3.49654
   O       -9.72702        -9.66130        -2.80376
   C      -11.78788        -8.52537        -2.96410
   C      -12.39955        -8.75792        -1.77190
   S      -13.69487        -7.66635        -1.47468
   C      -13.40898        -6.86863        -2.96233
   C      -12.36461        -7.41084        -3.65762
   C      -11.80829        -6.88282        -4.91996
   O      -10.65847        -7.08434        -5.24224
   C      -12.77637        -6.11734        -5.75708
   C      -13.36136        -6.74104        -6.85248
   C      -14.27537        -6.05065        -7.62852
   C      -14.60062        -4.73940        -7.32598
   C      -14.00519        -4.11253        -6.24397
   C      -13.09697        -4.79860        -5.45697
   C      -12.12390       -10.06070        -5.39326
   C      -12.30688       -10.49780        -6.68753
   C      -11.20274       -10.67584        -7.52376
   C       -9.92317       -10.43993        -7.02176
   C      -11.34079       -11.11880        -8.89903
   O      -10.32208       -11.81777        -9.42204
   C      -10.62443       -12.14240       -10.70340
   C      -11.85787       -11.63712       -11.02052
   C      -12.33377       -10.96940        -9.86220
   C      -13.57672       -10.20382        -9.81243
   O      -13.96059        -9.50339        -8.90593
   O      -14.28657       -10.33656       -10.94557
   C       -9.65888       -12.90817       -11.44952
   C       -9.81633       -13.30635       -12.70781
   H       -8.67931         4.36326         1.56585
   H       -9.31123         1.10742        -1.18305
   H      -11.28649         1.25484        -0.42315
   H       -5.48677         2.26086        -0.98887
   H       -7.38750         0.22225        -2.25743
   H       -6.37612         1.83909        -4.57292
   H       -5.99131         6.32922        -4.33888
   H       -1.61053         5.89132        -1.37360
   H       -1.48801         5.94933         1.10604
   H       -3.50077         5.43930         2.43857
   H       -5.62111         4.88835         1.30993
   H       -5.74107         4.84340        -1.14482
   H       -2.15381         0.76487        -3.85353
   H       -2.27311        -1.63341        -4.38386
   H       -6.29346        -1.71507        -2.95385
   H       -5.56514        -3.77731        -2.36426
   H       -6.75338        -5.41207        -1.45211
   H       -8.33610        -7.88321        -2.23086
   H       -8.48613        -6.33928        -3.09031
   H      -10.08449        -6.40419        -1.40095
   H       -8.97693        -6.69050        -0.23618
   H       -6.29916        -8.38423        -0.92953
   H       -6.79764        -7.14775         0.24448
   H       -4.64039        -6.06825        -0.30033
   H       -4.41990        -7.58170         0.29444
   H       -6.72939        -9.31323        -2.91304
   H       -5.49610       -10.86200        -4.40917
   H       -4.89045       -10.21112        -6.75325
   H       -4.01802        -7.91826        -6.88778
   H       -3.45453        -5.37335        -6.59981
   H       -3.29190        -3.02381        -5.91252
   H       -7.32905       -11.31468        -5.93624
   H       -8.35089        -8.72011        -4.67838
   H      -12.17757        -9.53474        -1.06717
   H      -14.01043        -6.02435        -3.23559
   H      -13.11036        -7.76241        -7.09639
   H      -14.72897        -6.54847        -8.47141
   H      -15.31343        -4.20249        -7.93416
   H      -14.24826        -3.08637        -6.01048
   H      -12.62134        -4.30792        -4.61958
   H      -12.98418        -9.94108        -4.74989
   H      -13.29957       -10.69655        -7.05375
   H       -9.06782       -10.56548        -7.66799
   H      -12.37501       -11.71181       -11.95341
   H      -15.09404        -9.80275       -10.89015
   H       -8.75964       -13.14944       -10.89930
   H      -10.70413       -13.07604       -13.27017
   H       -9.05745       -13.87648       -13.21291
*
