# ORCA input file
# SCF done       -224.498561275071          0.000811390349
! CAM-B3LYP def2-SVP def2/J RIJCOSX Grid4 TightSCF
%maxcore 5000
%tddft
    Mode sTDDFT
    Ethresh 5.0
    maxcore 5000
end

%pal
  nprocs 6
  end
* xyz 0 1
   C       -7.39225        -6.66637         1.66662
   C       -7.99836        -7.34933         0.49214
   O       -7.90302        -7.08540        -0.68713
   C       -8.81948        -8.44066         1.05623
   C       -8.86241        -8.33465         2.45678
   C       -8.09587        -7.16288         2.85324
   C       -8.12302        -6.57027         4.08403
   C       -8.84067        -7.08805         5.18518
   N       -9.40319        -7.46885         6.10941
   C       -7.53296        -5.32570         4.39688
   N       -7.13549        -4.29451         4.70669
   C       -9.57666        -9.27077         3.19243
   C      -10.23552       -10.28560         2.51772
   C      -10.19396       -10.36730         1.12842
   C       -9.48284        -9.44108         0.37477
  Cl      -11.03687       -11.64002         0.33324
   C       -6.29334        -5.87379         1.77612
   C       -5.37405        -5.31740         0.81843
   C       -4.20486        -4.70891         1.32277
   C       -3.91268        -4.64830         2.79140
   O       -3.33079        -5.53801         3.37407
   C       -4.38472        -3.42526         3.45067
   C       -5.35294        -2.59884         2.94074
   S       -5.79556        -1.36139         4.02598
   C       -4.67722        -1.93642         5.19712
   C       -3.98476        -3.02278         4.76651
   C       -2.90243        -3.67005         5.55559
   O       -3.04708        -3.97402         6.71786
   C       -1.62822        -3.86876         4.82315
   C       -0.75559        -4.86130         5.26238
   C        0.43732        -5.08182         4.60198
   C        0.77780        -4.30263         3.50803
   C       -0.07448        -3.29684         3.08055
   C       -1.27438        -3.07885         3.73099
   C       -3.27514        -4.17518         0.44431
   C       -3.47968        -4.22344        -0.92085
   C       -4.63965        -4.80406        -1.45233
   C       -5.57300        -5.33425        -0.56121
   C       -4.86767        -4.85149        -2.87661
   N       -6.07387        -5.25395        -3.41274
   C       -5.98757        -5.18637        -4.76616
   C       -6.68959        -5.38506        -5.95348
   C       -5.80184        -5.05487        -6.98120
   N       -4.59432        -4.65735        -6.44851
   C       -4.68743        -4.73704        -5.09740
   C       -3.98888        -4.52337        -3.90747
   C       -6.07022        -5.14767        -8.37603
   C       -5.19707        -4.90112        -9.37029
   C       -5.48689        -5.17032       -10.76829
   C       -4.50980        -5.76610       -11.58838
   C       -3.24603        -6.25693       -10.97566
   O       -2.14210        -6.03482       -11.41919
   C       -3.49804        -7.06004        -9.75324
   C       -4.50831        -7.97193        -9.63167
   S       -4.59395        -8.64615        -8.06278
   C       -3.27989        -7.66880        -7.53257
   C       -2.77205        -6.90205        -8.53178
   C       -1.70666        -5.87064        -8.36999
   O       -1.95275        -4.83020        -7.78498
   C       -0.40436        -6.17317        -8.97476
   C       -0.11039        -7.44294        -9.47301
   C        1.12141        -7.68911       -10.04514
   C        2.06630        -6.67742       -10.12868
   C        1.78264        -5.41443        -9.63207
   C        0.55489        -5.16225        -9.05472
   C       -4.75457        -5.96663       -12.94020
   C       -5.99123        -5.67144       -13.47781
   C       -7.00820        -5.16980       -12.65920
   C       -6.72269        -4.87479       -11.32518
   C       -8.32611        -4.94561       -13.20596
   C       -9.50967        -5.02575       -12.55881
   C      -10.73220        -4.42028       -13.16355
   O      -10.88693        -4.09378       -14.31455
   C      -11.67221        -4.25600       -12.03226
   C      -11.12814        -4.84767       -10.87587
   C       -9.85763        -5.47548       -11.21828
   C       -9.23929        -6.46318       -10.50183
   C       -9.62791        -6.85301        -9.20282
   N       -9.87014        -7.17447        -8.12808
   C       -8.16802        -7.24680       -10.98114
   N       -7.34815        -7.97678       -11.31697
   C      -11.82797        -4.78328        -9.67872
   C      -13.05443        -4.13984        -9.65656
   C      -13.58514        -3.57250       -10.81180
   C      -12.89736        -3.62132       -12.01928
  Cl      -15.11824        -2.79363       -10.74009
   H       -9.61970        -9.22930         4.26851
   H      -10.79135       -11.02469         3.07297
   H       -9.44297        -9.49618        -0.70162
   H       -6.00167        -5.65249         2.79768
   H       -5.84761        -2.67975         1.99246
   H       -4.57148        -1.42916         6.13529
   H       -1.04209        -5.45864         6.11442
   H        1.10426        -5.86181         4.93799
   H        1.70953        -4.47483         2.98920
   H        0.19973        -2.68007         2.23630
   H       -1.92733        -2.28254         3.40112
   H       -2.37683        -3.72478         0.84141
   H       -2.74242        -3.79905        -1.58278
   H       -6.47249        -5.78714        -0.93472
   H       -6.86968        -5.56980        -2.88593
   H       -7.69638        -5.72754        -6.08726
   H       -3.74836        -4.46941        -6.97073
   H       -2.97687        -4.18916        -3.80238
   H       -7.05620        -5.52468        -8.61616
   H       -4.19902        -4.55475        -9.14507
   H       -5.20978        -8.27674       -10.38430
   H       -2.94424        -7.72800        -6.51638
   H       -0.84577        -8.23111        -9.40923
   H        1.34760        -8.67117       -10.43306
   H        3.02559        -6.87429       -10.58419
   H        2.51989        -4.62840        -9.70022
   H        0.30991        -4.18475        -8.66651
   H       -3.97483        -6.39084       -13.55487
   H       -6.19411        -5.86884       -14.51919
   H       -7.46316        -4.37767       -10.71531
   H       -8.37880        -4.63925       -14.24573
   H      -11.43193        -5.21030        -8.77153
   H      -13.60974        -4.07569        -8.73403
   H      -13.29967        -3.18200       -12.91825
*
