# ORCA input file
# SCF done       -232.662430814381          0.000291277857
! CAM-B3LYP def2-SVP def2/J RIJCOSX Grid4 TightSCF
%maxcore 5000
%tddft
    Mode sTDDFT
    Ethresh 5.0
    maxcore 5000
end

%pal
  nprocs 6
  end
* xyz 0 1
   C      -14.60682        -1.41930         2.76950
   C      -15.54465        -2.44150         2.68123
   C      -15.15381        -3.74358         2.42490
   C      -13.81289        -4.06698         2.25080
   C      -12.87552        -3.05539         2.31988
   C      -13.27402        -1.72865         2.58050
   C      -12.07098        -0.89666         2.61093
   C      -12.03868         0.46330         2.88555
   C      -13.18002         1.24697         3.11405
   N      -14.06561         1.95450         3.31229
   C      -10.87555         1.23253         3.03750
   N       -9.96647         1.92460         3.18781
   C      -10.97379        -1.75011         2.33944
   C      -11.40908        -3.08752         2.23969
   C      -10.67130        -4.26173         2.14078
   C       -9.33967        -4.43363         2.53305
   N       -8.27596        -4.68472         2.89639
   C      -11.20870        -5.48161         1.70266
   N      -11.55294        -6.49510         1.27893
   C       -9.59251        -1.20700         2.17051
   C       -8.56605        -1.94919         1.38511
   C       -7.42529        -2.10740         2.21224
   C       -7.80155        -1.63973         3.49205
   O       -8.99398        -1.09114         3.47878
   C       -7.19671        -1.80619         4.77491
   C       -5.86087        -1.93532         5.07511
   S       -5.59120        -2.10269         6.74708
   C       -7.28609        -2.02561         7.07593
   C       -8.01952        -1.85250         5.95334
   C       -9.52144        -1.89456         5.86373
   O      -10.07138        -2.94171         5.60576
   C      -10.24080        -0.62816         6.07921
   C      -11.63546        -0.64246         6.00684
   C      -12.35305         0.52596         6.16538
   C      -11.68523         1.72037         6.38994
   C      -10.30068         1.74297         6.46230
   C       -9.57710         0.57639         6.30939
   C       -6.30336        -2.78428         1.71703
   C       -6.36524        -3.31141         0.45574
   C       -7.51194        -3.18913        -0.36269
   C       -8.61633        -2.45967         0.11853
   C       -7.56237        -3.84286        -1.63255
   N       -8.50003        -3.52844        -2.59613
   C       -8.33365        -4.36210        -3.65222
   C       -8.81560        -4.68840        -4.91748
   C       -8.06054        -5.78199        -5.34644
   N       -7.12407        -6.10406        -4.38745
   C       -7.27190        -5.24954        -3.34007
   C       -6.77824        -4.91320        -2.08570
   C       -8.19117        -6.47098        -6.58634
   C       -7.56944        -7.61900        -6.91831
   C       -7.68184        -8.25933        -8.20943
   C       -7.94128        -7.53746        -9.38876
   C       -7.84241        -6.05583        -9.45971
   O       -8.67227        -5.36027       -10.00294
   C       -6.60547        -5.48182        -8.87757
   C       -6.55831        -4.19144        -8.43105
   S       -5.03423        -3.76766        -7.78819
   C       -4.42381        -5.33999        -8.12711
   C       -5.35374        -6.15458        -8.69832
   C       -5.04732        -7.52392        -9.19837
   O       -5.20421        -7.80411       -10.36885
   C       -4.55383        -8.51519        -8.21333
   C       -4.31884        -9.81422        -8.66889
   C       -3.92854       -10.80817        -7.79412
   C       -3.75918       -10.51428        -6.44973
   C       -3.97615        -9.22526        -5.98872
   C       -4.37746        -8.22910        -6.86034
   C       -8.17605        -8.21460       -10.58032
   C       -8.09141        -9.58819       -10.63888
   C       -7.74264       -10.31673        -9.49621
   C       -7.53327        -9.64057        -8.29923
   C       -7.51771       -11.74641        -9.54826
   C       -8.22467       -12.66553       -10.24366
   C       -7.76048       -14.02153       -10.55364
   C       -6.74387       -14.70290        -9.94435
   C       -5.95736       -14.22005        -8.87712
   N       -5.26904       -13.89681        -8.01633
   C       -6.35095       -16.01493       -10.29044
   N       -5.98236       -17.07773       -10.51609
   C       -8.57879       -14.49962       -11.65592
   C       -9.59919       -13.55524       -11.91916
   C      -10.50291       -13.76159       -12.94959
   C      -10.38858       -14.91487       -13.70980
   C       -9.39565       -15.84918       -13.44553
   C       -8.48304       -15.65310       -12.42121
   C       -9.49891       -12.48222       -10.94516
   C      -10.50140       -11.62596       -10.58870
   C      -11.73299       -11.53514       -11.27350
   N      -12.74263       -11.41494       -11.80443
   C      -10.48164       -10.81208        -9.43503
   N      -10.55883       -10.19645        -8.47013
   H      -14.92462        -0.41135         2.98129
   H      -16.59076        -2.21240         2.81905
   H      -15.89677        -4.52460         2.36297
   H      -13.52590        -5.08898         2.06421
   H       -9.67241        -0.17791         1.78547
   H       -5.03001        -1.89350         4.40045
   H       -7.63452        -2.12236         8.08472
   H      -12.13261        -1.58331         5.81837
   H      -13.43082         0.51311         6.10187
   H      -12.24629         2.63625         6.49755
   H       -9.78556         2.67684         6.62722
   H       -8.49823         0.59880         6.35489
   H       -5.42440        -2.91221         2.32572
   H       -5.51506        -3.84692         0.06580
   H       -9.51968        -2.36094        -0.46411
   H       -9.15926        -2.77248        -2.53616
   H       -9.61279        -4.23130        -5.46770
   H       -6.47985        -6.87250        -4.44898
   H       -5.99688        -5.39654        -1.53586
   H       -8.87468        -6.01338        -7.28746
   H       -6.98924        -8.16057        -6.18297
   H       -7.36303        -3.48342        -8.43769
   H       -3.39345        -5.56047        -7.92657
   H       -4.45918       -10.01705        -9.72053
   H       -3.76540       -11.81489        -8.14750
   H       -3.46125       -11.29161        -5.76292
   H       -3.83595        -8.99895        -4.94129
   H       -4.55576        -7.23006        -6.49104
   H       -8.38395        -7.64042       -11.47024
   H       -8.23088       -10.09704       -11.58142
   H       -7.29209       -10.20571        -7.41037
   H       -6.63937       -12.07665        -9.00954
   H      -11.27319       -13.04001       -13.16827
   H      -11.08208       -15.08661       -14.51855
   H       -9.32855       -16.74149       -14.04872
   H       -7.71510       -16.38566       -12.23488
*
