# ORCA input file
# SCF done       -235.668767173070          0.000824851391
! CAM-B3LYP def2-SVP def2/J RIJCOSX Grid4 TightSCF
%maxcore 5000
%tddft
    Mode sTDDFT
    Ethresh 5.0
    maxcore 5000
end

%pal
  nprocs 6
  end
* xyz 0 1
   C        0.72316        -0.84091        -1.65987
   C        1.41635        -1.80964        -0.98629
   C        2.41805        -1.53663        -0.03191
   N        3.22368        -1.36190         0.76638
   C        1.26907        -3.19195        -1.22945
   N        1.24627        -4.32103        -1.43346
   C        1.02824         0.58721        -1.64542
   C        0.45947         1.18509        -2.78542
   C        0.61682         2.53027        -3.05071
   C        1.34774         3.29874        -2.15308
   C        1.90604         2.71273        -1.01074
   C        1.75522         1.35519        -0.75134
  Cl        2.79277         3.67952         0.09685
  Cl        1.56284         4.97664        -2.44734
   C       -0.29313         0.16882        -3.55516
   O       -0.85938         0.30736        -4.61318
   C       -0.25441        -1.05607        -2.71118
   C       -1.12090        -2.07222        -2.94564
   C       -1.50296        -3.13777        -2.06000
   C       -1.88708        -4.37573        -2.59914
   C       -2.23925        -5.39645        -1.75353
   C       -2.26911        -5.19524        -0.36162
   C       -1.94113        -3.95876         0.17816
   C       -1.54984        -2.94639        -0.67089
   C       -2.69531        -6.42339         0.27219
   C       -2.92333        -7.38438        -0.72676
   C       -2.63906        -6.81165        -2.09465
   C       -3.88959        -6.84697        -2.99236
   C       -5.08217        -6.12761        -2.37338
   C       -1.48286        -7.56094        -2.78499
   C       -0.20133        -7.56618        -1.96037
   C       -3.35552        -8.64697        -0.39577
   C       -3.57505        -8.96834         0.94694
   C       -3.33877        -8.00648         1.93171
   C       -2.89700        -6.73813         1.60781
   C       -4.06855       -10.30164         1.31221
   C       -5.06091       -10.43359         2.28842
   C       -5.54812       -11.68228         2.59844
   C       -5.00935       -12.82328         1.97989
   C       -4.01657       -12.70246         1.02047
   C       -3.56544       -11.44033         0.68273
   C       -5.64161       -13.99771         2.54480
   C       -6.57234       -13.58148         3.50921
   C       -6.62853       -12.06985         3.58281
   C       -6.33518       -11.54848         4.99733
   C       -5.00659       -12.06329         5.53968
   C       -8.03502       -11.64691         3.09775
   C       -8.25875       -10.15174         2.91380
   C       -7.31781       -14.50416         4.20076
   C       -7.14117       -15.87453         3.95550
   C       -6.20441       -16.27112         2.99305
   C       -5.45795       -15.34839         2.28854
   C       -7.96137       -16.81383         4.69010
   C       -7.81486       -18.14860         4.72201
   C       -8.65827       -19.08693         5.43028
   C       -8.23208       -20.42054         5.53234
   C       -9.01764       -21.34420         6.17573
   C      -10.25408       -20.96718         6.72888
   C      -10.68817       -19.65137         6.63693
   C       -9.89110       -18.72826         5.99312
   C      -10.87249       -22.13360         7.31409
   C      -10.01397       -23.23543         7.12831
   C       -8.75992       -22.81585         6.39802
   C       -8.60991       -23.57044         5.06407
   C       -9.81403       -23.39435         4.14657
   C       -7.50520       -23.03944         7.26345
   C       -7.57623       -22.32257         8.60636
   C      -10.36653       -24.47539         7.58977
   C      -11.61877       -24.65708         8.21088
   C      -12.44919       -23.54438         8.41695
   C      -12.08117       -22.28959         7.98057
   C      -11.95584       -25.97646         8.65651
   C      -13.18401       -26.55513         8.77767
   C      -13.42353       -27.87866         9.33168
   C      -12.55632       -28.61497        10.09415
   C      -12.85545       -29.88865        10.62347
   N      -13.03324       -30.92780        11.07690
   C      -11.26233       -28.20802        10.48523
   N      -10.20829       -27.95016        10.86083
   C      -14.79347       -28.25874         9.00317
   C      -15.40645       -27.19401         8.32273
   C      -14.45102       -26.07350         8.16907
   O      -14.67198       -25.02958         7.59836
   C      -16.71349       -27.26386         7.88591
   C      -17.43032       -28.42667         8.13715
   C      -16.82700       -29.49466         8.81125
   C      -15.50929       -29.42004         9.24788
  Cl      -17.72210       -30.93020         9.10753
  Cl      -19.06170       -28.55216         7.61618
   H        0.18150         2.97194        -3.93312
   H        2.19429         0.93449         0.13880
   H       -1.63153        -2.03274        -3.90307
   H       -1.85904        -4.51782        -3.66937
   H       -1.98821        -3.79095         1.24350
   H       -1.31505        -1.97131        -0.26794
   H       -4.15444        -7.88934        -3.18100
   H       -3.64549        -6.38641        -3.95180
   H       -5.35481        -6.58339        -1.42402
   H       -5.93965        -6.18239        -3.04004
   H       -4.85038        -5.07958        -2.19613
   H       -1.29000        -7.09004        -3.75108
   H       -1.80159        -8.58902        -2.97238
   H        0.15732        -6.55415        -1.79176
   H        0.57351        -8.12087        -2.48440
   H       -0.36765        -8.03846        -0.99445
   H       -3.55208        -9.38386        -1.16071
   H       -3.48597        -8.27050         2.96877
   H       -2.71298        -6.00798         2.38171
   H       -5.44154        -9.54919         2.77632
   H       -3.59805       -13.57808         0.54692
   H       -2.78371       -11.33231        -0.05503
   H       -7.14396       -11.85793         5.66288
   H       -6.31339       -10.45792         4.97978
   H       -5.00923       -13.14955         5.59698
   H       -4.82801       -11.66622         6.53649
   H       -4.18576       -11.75768         4.89435
   H       -8.76120       -12.02853         3.81928
   H       -8.22419       -12.14836         2.14470
   H       -8.06296        -9.60436         3.83211
   H       -9.29506        -9.97584         2.63254
   H       -7.62496        -9.75792         2.12413
   H       -8.03888       -14.18855         4.94203
   H       -6.07143       -17.32091         2.78204
   H       -4.74601       -15.67561         1.54528
   H       -8.75261       -16.35579         5.26938
   H       -6.98877       -18.60268         4.19071
   H       -7.28318       -20.70752         5.10121
   H      -11.63857       -19.35575         7.05564
   H      -10.23673       -17.70991         5.90674
   H       -8.46721       -24.63200         5.27676
   H       -7.71254       -23.20888         4.55767
   H      -10.71897       -23.76715         4.62139
   H       -9.66115       -23.94271         3.21991
   H       -9.96244       -22.34425         3.90458
   H       -6.63300       -22.68534         6.70996
   H       -7.38207       -24.11132         7.43110
   H       -7.68135       -21.24909         8.46458
   H       -6.66858       -22.50719         9.17603
   H       -8.42441       -22.67696         9.18790
   H       -9.71416       -25.32655         7.45606
   H      -13.37426       -23.66876         8.95397
   H      -12.72687       -21.44238         8.15390
   H      -11.09795       -26.60024         8.88229
   H      -17.16365       -26.43367         7.36487
   H      -15.07684       -30.26443         9.75893
*
