# ORCA input file
# SCF done       -231.183241762245          0.000633042424
! CAM-B3LYP def2-SVP def2/J RIJCOSX Grid4 TightSCF
%maxcore 5000
%tddft
    Mode sTDDFT
    Ethresh 5.0
    maxcore 5000
end

%pal
  nprocs 6
  end
* xyz 0 1
   C       -1.14212        -5.59472        10.05714
   C       -1.43510        -4.37493        10.61292
   C       -1.99721        -4.20237        11.89518
   N       -2.44922        -3.99095        12.92892
   C       -1.18789        -3.12784        10.00360
   N       -1.00269        -2.08096         9.56840
   C       -1.37077        -6.89256        10.68795
   C       -0.85779        -7.90469         9.85801
   C       -0.93370        -9.23771        10.20342
   C       -1.55233        -9.57360        11.40099
   C       -2.06825        -8.57358        12.23311
   C       -1.97930        -7.23015        11.88646
  Cl       -2.82476        -9.00262        13.71366
  Cl       -1.68146       -11.22212        11.86106
   C       -0.24827        -7.29886         8.65657
   O        0.48457        -7.84175         7.86468
   C       -0.57194        -5.84474         8.74945
   C       -0.30070        -4.92632         7.77876
   C       -0.03064        -5.25463         6.42708
   N        0.67125        -4.44328         5.56827
   C        1.38194        -3.24302         5.93433
   C        2.59386        -3.54339         6.81088
   C        0.73242        -4.97909         4.26827
   O        1.31948        -4.43781         3.35503
   C       -0.06068        -6.19206         4.34702
   C       -0.50918        -6.32594         5.68413
   C       -1.37128        -7.48254         5.75515
   O       -2.06767        -7.93120         6.64136
   N       -1.30828        -8.03879         4.46038
   C       -2.13508        -9.18325         4.15344
   C       -1.54626       -10.47122         4.72540
   C       -0.52601        -7.28612         3.61790
   C       -0.21241        -7.59948         2.24717
   C       -0.09162        -8.89671         1.79472
   C        0.28614        -9.15086         0.46307
   C        0.48909       -10.34543        -0.21917
   C        0.27674       -11.74367         0.25297
   C        1.24015       -12.11888         1.39699
   N        1.44386       -13.55374         1.39206
   C       -1.19541       -11.96901         0.64612
   N       -1.45169       -13.38220         0.88051
   C        0.95136        -9.99045        -1.53923
   C        1.38740       -10.75449        -2.55753
   C        1.91701       -10.15187        -3.81304
   C        1.80811        -8.65851        -3.88146
   C        1.36994        -7.91009        -2.85171
   C        0.96940        -8.52378        -1.64221
   C        0.56508        -8.02542        -0.42035
   C        0.43010        -6.70655         0.07194
   C        0.05632        -6.50315         1.35937
   C        1.22848       -10.74664        -5.00716
   C        1.88647       -11.38056        -5.98944
   C        1.23718       -11.92227        -7.14001
   N        1.90390       -12.57510        -8.14693
   C        3.30675       -12.90936        -8.18979
   C        3.62036       -14.12329        -7.31862
   C        1.02920       -13.00596        -9.16403
   O        1.39882       -13.56366       -10.17590
   C       -0.27613       -12.58513        -8.70357
   C       -0.11324       -11.89845        -7.47611
   C       -1.41318       -11.40403        -7.07044
   O       -1.77712       -10.79113        -6.08595
   N       -2.27246       -11.79643        -8.10878
   C       -3.68082       -11.47735        -8.09782
   C       -3.98293       -10.19889        -8.87644
   C       -1.61292       -12.51799        -9.07504
   C       -2.19255       -12.96062       -10.29052
   C       -1.69237       -13.99813       -11.02116
   C       -1.95404       -14.30188       -12.41238
   C       -2.78166       -13.61340       -13.26326
   C       -2.97989       -13.94611       -14.61982
   N       -3.18928       -14.16409       -15.72704
   C       -3.55466       -12.49133       -12.90122
   N       -4.20685       -11.57524       -12.66693
   C       -1.12191       -15.44673       -12.77340
   C       -0.43671       -15.89794       -11.63129
   C       -0.82337       -15.07991       -10.46508
   O       -0.62322       -15.33338        -9.30117
   C        0.43326       -16.96716       -11.67916
   C        0.63956       -17.59461       -12.90126
   C       -0.03680       -17.15205       -14.04452
   C       -0.92177       -16.08123       -13.98930
  Cl        0.22307       -17.94048       -15.54702
  Cl        1.72670       -18.91761       -13.00779
   H       -0.53006        -9.99715         9.55311
   H       -2.38617        -6.48817        12.55385
   H       -0.33712        -3.87111         8.01541
   H        0.70116        -2.55590         6.44713
   H        1.70297        -2.78697         4.99370
   H        2.28952        -4.02670         7.73713
   H        3.10972        -2.61875         7.05347
   H        3.28207        -4.20154         6.28602
   H       -2.27709        -9.24209         3.07245
   H       -3.10665        -9.00846         4.62850
   H       -0.53827       -10.64916         4.35645
   H       -2.17471       -11.31743         4.46008
   H       -1.49993       -10.39361         5.80833
   H       -0.20143        -9.72666         2.46999
   H        0.50447       -12.42858        -0.56955
   H        0.84262       -11.73605         2.35039
   H        2.20854       -11.63768         1.22197
   H        0.54523       -14.00953         1.52737
   H        2.06214       -13.82873         2.14726
   H       -1.83274       -11.53952        -0.14597
   H       -1.41807       -11.43809         1.57435
   H       -1.33940       -13.90327         0.01622
   H       -2.40522       -13.51813         1.19911
   H        1.40104       -11.83433        -2.50325
   H        2.98543       -10.41871        -3.86809
   H        2.11546        -8.20857        -4.81264
   H        1.33071        -6.83382        -2.93183
   H        0.63819        -5.87101        -0.57862
   H       -0.02958        -5.50294         1.74843
   H        0.15658       -10.61308        -5.05368
   H        2.96034       -11.49884        -5.92905
   H        3.90309       -12.04343        -7.88911
   H        3.52827       -13.14179        -9.23519
   H        3.38439       -13.92776        -6.27483
   H        4.67433       -14.37424        -7.39969
   H        3.03162       -14.97478        -7.65064
   H       -3.95715       -11.33720        -7.04889
   H       -4.24152       -12.32253        -8.50545
   H       -3.41871        -9.36899        -8.45804
   H       -5.04242        -9.97065        -8.80337
   H       -3.72565       -10.30134        -9.92806
   H       -3.02961       -12.39074       -10.66806
   H        0.94702       -17.29679       -10.79040
   H       -1.42614       -15.77079       -14.88972
*
