# ORCA input file
# SCF done       -240.222986106646          0.000961708332
! CAM-B3LYP def2-SVP def2/J RIJCOSX Grid4 TightSCF
%maxcore 5000
%tddft
    Mode sTDDFT
    Ethresh 5.0
    maxcore 5000
end

%pal
  nprocs 6
  end
* xyz 0 1
   C       -4.69970         7.68926        -0.30708
   C       -4.62970         6.87463        -1.40453
   C       -5.28331         7.15277        -2.62384
   N       -5.79605         7.30615        -3.63998
   C       -3.99920         5.61731        -1.49633
   N       -3.56126         4.57542        -1.70159
   C       -5.48846         8.91711        -0.23673
   C       -5.62373         9.30263         1.12863
   C       -6.33790        10.40604         1.49723
   C       -6.94810        11.19886         0.49944
   C       -6.79173        10.83700        -0.86946
   C       -6.05368         9.68400        -1.22094
   C       -7.38597        11.64719        -1.85853
   C       -8.10535        12.75856        -1.51373
   C       -8.26308        13.11142        -0.16504
   C       -7.69691        12.34838         0.81974
   C       -4.85408         8.37192         1.97192
   O       -4.74258         8.37533         3.17759
   C       -4.17061         7.45126         1.02262
   C       -3.19573         6.63374         1.48184
   C       -2.21447         5.90690         0.68932
   C       -2.05273         4.52318         0.89510
   C       -3.01335         3.93889         1.84169
   O       -4.03279         4.56438         2.09932
   C       -2.71243         2.65251         2.48202
   C       -1.45466         2.14971         2.69085
   S       -1.47223         0.63934         3.48953
   C       -3.19423         0.64999         3.53934
   C       -3.72168         1.78015         3.00577
   C       -5.19437         2.04954         2.94951
   O       -5.93184         1.35802         2.28475
   C       -5.65287         3.19515         3.75988
   C       -6.85955         3.80611         3.42307
   C       -7.29447         4.91549         4.12041
   C       -6.54078         5.41214         5.17138
   C       -5.35565         4.78985         5.53198
   C       -4.90766         3.68890         4.82992
   C       -1.15430         3.81570         0.10415
   C       -0.41313         4.46576        -0.85977
   C       -0.54618         5.84298        -1.05788
   C       -1.44041         6.55457        -0.25724
   C        0.18024         6.54276        -2.09891
   S        0.77316         8.14768        -1.79743
   C        1.37476         8.27777        -3.41593
   C        1.11033         7.14361        -4.14335
   C        0.44471         6.14740        -3.38856
   C        0.06468         4.82675        -3.98388
   C        0.02045         4.91566        -5.50580
   C        1.34107         5.49922        -6.02641
   C        1.38174         5.39842        -7.52610
   O        1.45336         6.32280        -8.28691
   C        1.46594         6.95409        -5.58286
   C        2.12951         9.47360        -3.76856
   C        1.91129        10.19087        -4.95404
   C        0.75118         9.89254        -5.83764
   O       -0.36521         9.72483        -5.38632
   C        1.01855         9.84814        -7.27914
   C        2.24112         9.73656        -7.89089
   S        2.11323         9.65184        -9.58706
   C        0.39415         9.77824        -9.50344
   C       -0.05219         9.85782        -8.22773
   C       -1.47855         9.97962        -7.78520
   O       -2.02072        11.05631        -7.69667
   C       -2.14523         8.69551        -7.47715
   C       -1.68516         7.48407        -7.98941
   C       -2.35481         6.31220        -7.68756
   C       -3.46247         6.33433        -6.85353
   C       -3.91701         7.53564        -6.33170
   C       -3.26942         8.71244        -6.65284
   C        2.70587        11.29910        -5.24281
   C        3.68125        11.71874        -4.36546
   C        3.86371        11.05561        -3.14618
   C        3.10440         9.91962        -2.88089
   C        4.85200        11.56271        -2.21946
   C        4.75111        11.62217        -0.87161
   C        5.77751        12.14196         0.02668
   C        7.11020        12.25998        -0.25776
   C        8.07208        12.74207         0.65589
   N        8.89804        13.12957         1.35207
   C        7.71168        11.88304        -1.47811
   N        8.27294        11.58058        -2.43294
   C        5.14757        12.42771         1.30641
   C        3.79184        11.99626         1.25075
   C        3.49958        11.42637        -0.07587
   O        2.44707        10.95296        -0.43729
   C        2.94817        12.12853         2.31635
   C        3.43107        12.71225         3.50826
   C        4.78436        13.15592         3.56913
   C        5.63447        13.00483         2.45060
   C        5.25301        13.74330         4.76236
   C        4.42749        13.88419         5.84428
   C        3.09607        13.44543         5.78369
   C        2.60857        12.87157         4.64105
   H       -6.43147        10.67540         2.53891
   H       -5.94222         9.44473        -2.26655
   H       -7.26318        11.37012        -2.89522
   H       -8.55700        13.37258        -2.27844
   H       -8.83422        13.99185         0.08934
   H       -7.81362        12.61651         1.85978
   H       -3.04818         6.65696         2.55797
   H       -0.51538         2.61063         2.45731
   H       -3.71960        -0.17079         3.98519
   H       -7.42545         3.40861         2.59387
   H       -8.21912         5.39940         3.84197
   H       -6.87298         6.28754         5.70899
   H       -4.77501         5.17440         6.35758
   H       -3.98122         3.20814         5.11172
   H       -1.07507         2.74468         0.20457
   H        0.27874         3.90424        -1.46500
   H       -1.55110         7.61994        -0.40184
   H       -0.90537         4.50965        -3.59485
   H        0.80507         4.07256        -3.69592
   H       -0.79963         5.56813        -5.81048
   H       -0.15181         3.92383        -5.92794
   H        2.16798         4.89572        -5.63223
   H        1.31907         4.35676        -7.89953
   H        0.77178         7.53290        -6.19815
   H        2.47215         7.33266        -5.78238
   H        3.20538         9.67646        -7.42571
   H       -0.18228         9.77527       -10.40692
   H       -0.81591         7.45547        -8.63053
   H       -2.00901         5.37685        -8.10539
   H       -3.97165         5.41402        -6.60731
   H       -4.77252         7.54692        -5.67349
   H       -3.60511         9.66096        -6.26263
   H        2.52501        11.85465        -6.15092
   H        4.27805        12.58892        -4.59509
   H        3.28198         9.35419        -1.98016
   H        5.73079        11.99281        -2.68661
   H        1.92470        11.79074         2.24846
   H        6.65115        13.35729         2.52382
   H        6.27902        14.07798         4.80479
   H        4.79590        14.33462         6.75366
   H        2.45874        13.56504         6.64694
   H        1.58460        12.53206         4.58801
*
