# ORCA input file
# SCF done       -232.383111886889          0.000793814473
! CAM-B3LYP def2-SVP def2/J RIJCOSX Grid4 TightSCF
%maxcore 5000
%tddft
    Mode sTDDFT
    Ethresh 5.0
    maxcore 5000
end

%pal
  nprocs 6
  end
* xyz 0 1
   C        0.90201         1.06907         4.02740
   C        1.27437        -0.24063         3.93077
   C        1.72594        -1.01581         5.02274
   N        2.09956        -1.69329         5.86962
   C        1.26317        -1.00290         2.74066
   N        1.27227        -1.68390         1.81767
   C        0.88490         1.87476         5.23970
   C        0.47509         3.20220         4.91436
   C        0.35298         4.17525         5.86713
   C        0.63729         3.86103         7.21309
   C        1.04958         2.53726         7.54751
   C        1.16822         1.55185         6.54198
   C        1.33088         2.23462         8.89564
   C        1.20959         3.19056         9.86725
   C        0.80230         4.49241         9.53713
   C        0.52252         4.82089         8.23848
   C        0.21758         3.29924         3.47762
   O       -0.08891         4.28290         2.83806
   C        0.43348         1.91891         2.93516
   C        0.19482         1.58365         1.65682
   C       -0.32450         2.52061         0.66857
   C        0.38648         2.78831        -0.49771
   C        1.69128         2.24555        -0.92873
   O        2.42058         1.47073        -0.37123
   N        1.94917         2.83299        -2.17868
   C        0.94433         3.72764        -2.56476
   O        0.92067         4.37190        -3.57727
   C       -0.05734         3.69169        -1.46653
   C       -1.23769         4.39228        -1.32120
   C       -1.96779         4.12176        -0.16584
   C       -1.54442         3.20575         0.79251
   C       -2.48710         3.03022         1.92029
   O       -2.42021         2.25492         2.82648
   S       -3.85191         4.17389         1.72057
   C       -3.24373         4.80027         0.15037
   O       -3.80701         5.62639        -0.49725
   C        3.09152         2.48786        -2.89459
   C        3.45120         2.99478        -4.07957
   C        4.66531         2.62190        -4.75935
   C        5.46527         3.50472        -5.41122
   C        6.69292         2.83161        -5.79947
   C        7.77633         3.44535        -6.44413
   N        8.66119         3.93804        -6.98320
   C        6.61886         1.52288        -5.42504
   C        5.30503         1.28797        -4.86924
   C        4.69946         0.06697        -4.78216
   C        5.30719        -1.24135        -5.10265
   C        4.44677        -2.21255        -4.72001
   C        3.23004        -1.58333        -4.22101
   C        3.37080        -0.23308        -4.29342
   C        2.09351        -2.28619        -3.79475
   N        1.15721        -2.85955        -3.46276
   C        6.53118        -1.48920        -5.84744
   C        7.56267        -2.29738        -5.36930
   C        7.70274        -2.96736        -4.05441
   O        6.96669        -2.96054        -3.10680
   N        8.93141        -3.64940        -4.10660
   C        9.60736        -3.44250        -5.31803
   O       10.68339        -3.87427        -5.61639
   C        8.71179        -2.56306        -6.11744
   C        8.91184        -2.03420        -7.37863
   C        7.88568        -1.23525        -7.87324
   C        6.72434        -0.98251        -7.14724
   C        5.71966        -0.17887        -7.87460
   O        4.60350         0.08430        -7.53641
   S        6.41195         0.33954        -9.44577
   C        7.93502        -0.58793        -9.20309
   O        8.80886        -0.64810       -10.00884
   C        9.36986        -4.39968        -3.02733
   C       10.40703        -5.25505        -3.03900
   C       10.76506        -5.96502        -1.85637
   C       11.71043        -6.93958        -1.79769
   C       12.13381        -7.67644        -0.61522
   C       11.80112        -7.39989         0.68401
   C       12.26349        -8.14038         1.79335
   N       12.60149        -8.69914         2.73718
   C       10.98517        -6.33076         1.11135
   N       10.34401        -5.48027         1.54029
   C       13.03201        -8.73819        -1.05164
   C       13.22660        -8.62403        -2.45784
   C       12.43613        -7.49599        -2.97701
   O       12.37327        -7.12513        -4.12805
   C       14.03013        -9.48489        -3.14876
   C       14.68585       -10.52416        -2.45271
   C       14.49134       -10.65073        -1.04651
   C       13.65613        -9.74228        -0.35771
   C       15.14553       -11.69595        -0.36244
   C       15.95294       -12.57366        -1.03302
   C       16.14407       -12.44745        -2.41735
   C       15.52449       -11.44430        -3.11199
   H        0.03741         5.17133         5.59403
   H        1.47745         0.55944         6.82905
   H        1.64354         1.23157         9.14551
   H        1.42626         2.94880        10.89680
   H        0.71114         5.23311        10.31719
   H        0.20841         5.82093         7.97817
   H        0.42592         0.59503         1.28238
   H       -1.58326         5.10874        -2.04927
   H        3.68597         1.74946        -2.37012
   H        2.87833         3.79371        -4.52721
   H        5.27787         4.55025        -5.56810
   H        7.39931         0.79594        -5.52940
   H        4.57857        -3.27374        -4.81877
   H        2.62735         0.49113        -4.03186
   H        9.80491        -2.22602        -7.95144
   H        8.75845        -4.24638        -2.14493
   H       10.98752        -5.42533        -3.93292
   H       10.22412        -5.69841        -0.95708
   H       14.16124        -9.37379        -4.21493
   H       13.52672        -9.86874         0.70537
   H       14.99611       -11.78865         0.70327
   H       16.44929       -13.37088        -0.50036
   H       16.78438       -13.14934        -2.93032
   H       15.66748       -11.34200        -4.17775
*
