# ORCA input file
# SCF done       -157.074500058621          0.000873433232
! CAM-B3LYP def2-SVP def2/J RIJCOSX Grid4 TightSCF
%maxcore 5000
%tddft
    Mode sTDDFT
    Ethresh 5.0
    maxcore 5000
end

%pal
  nprocs 6
  end
* xyz 0 1
   C       -4.36580        -0.26483         2.89791
   C       -4.56376         1.00947         3.40035
   C       -5.79085         1.30625         3.99919
   C       -6.01595         2.60758         4.51273
   N       -6.18874         3.66098         4.92591
   C       -6.80876         0.33922         4.09789
   C       -8.04344         0.67113         4.70579
   N       -9.05014         0.91935         5.19173
   C       -6.60455        -0.94603         3.59208
   C       -5.39140        -1.22521         3.00084
   C       -4.93412        -2.48722         2.38274
   O       -5.57113        -3.52749         2.31580
   C       -3.59225        -2.23106         1.87585
   C       -3.21878        -0.87383         2.21724
   C       -2.02185        -0.24932         1.98366
   C       -1.73390         1.08048         2.36124
   N       -1.43989         2.15386         2.64031
   C       -0.90119        -0.82956         1.35051
   N        0.05446        -1.22412         0.85106
   C       -2.83659        -3.12890         1.15454
   C       -3.11809        -4.44419         0.76904
   C       -2.18817        -5.14840        -0.01600
   C       -2.53045        -6.43403        -0.36200
   C       -3.76081        -6.87241         0.13703
  Se       -4.61460        -5.55019         1.14549
   C       -4.32424        -8.15467        -0.08520
   C       -5.55488        -8.50568         0.52510
   C       -6.16581        -9.78400         0.34937
   N       -7.32705       -10.05704         0.96989
   C       -7.88041        -9.14353         1.72169
   C       -7.28243        -7.87765         1.88413
   N       -6.15343        -7.58557         1.29902
   C       -5.59347       -10.79669        -0.46062
   C       -4.37461       -10.45226        -1.08682
   C       -3.74724        -9.15906        -0.89682
   N       -2.60489        -9.07091        -1.58185
   S       -2.34421       -10.43964        -2.36964
   N       -3.65494       -11.22902        -1.89914
   C       -6.22503       -12.05941        -0.57769
   C       -5.78933       -13.15161        -1.32220
   C       -6.59688       -14.27450        -1.25814
   C       -7.70572       -14.17407        -0.42133
  Se       -7.80804       -12.43932         0.33436
   C       -8.66531       -15.19457        -0.27835
   C       -9.63910       -15.33783         0.67081
   C      -10.82527       -16.17973         0.38368
   O      -10.96564       -16.96651        -0.52270
   C      -11.82285       -15.80162         1.41550
   C      -13.13474       -16.20747         1.53449
   C      -13.89323       -15.68433         2.58378
   C      -13.32014       -14.76371         3.48194
   C      -11.98662       -14.36770         3.35890
   C      -11.23751       -14.89594         2.32255
   C       -9.83009       -14.71644         1.96083
   C       -8.84530       -14.31243         2.82656
   C       -7.46955       -14.46645         2.55271
   N       -6.34386       -14.62307         2.38901
   C       -9.09196       -13.78566         4.11014
   N       -9.24927       -13.32722         5.15038
   C      -14.11108       -14.22637         4.52768
   N      -14.74092       -13.78406         5.37499
   C      -15.24445       -16.07616         2.74207
   N      -16.33514       -16.40580         2.85529
   H       -3.81045         1.77874         3.34286
   H       -7.37515        -1.69875         3.65898
   H       -1.87265        -2.77376         0.80655
   H       -1.26190        -4.69175        -0.32688
   H       -1.90759        -7.07144        -0.96506
   H       -8.80862        -9.40370         2.20932
   H       -7.72847        -7.10770         2.49607
   H       -4.88482       -13.10234        -1.90294
   H       -6.36525       -15.18604        -1.78430
   H       -8.69940       -15.93174        -1.07697
   H      -13.56349       -16.91038         0.83646
   H      -11.57764       -13.65833         4.06118
*
