# ORCA input file
# SCF done       -169.300855617168          0.000613986769
! CAM-B3LYP def2-SVP def2/J RIJCOSX Grid4 TightSCF
%maxcore 5000
%tddft
    Mode sTDDFT
    Ethresh 5.0
    maxcore 5000
end

%pal
  nprocs 6
  end
* xyz 0 1
   C       -2.76673         2.17512        -4.00931
   C       -1.47510         2.56515        -3.76352
   C       -0.38497         2.25443        -4.60351
   N        0.54355         2.03166        -5.24099
   C       -1.04102         3.36549        -2.68544
   N       -0.60068         4.03106        -1.85922
   C       -3.21150         1.44716        -5.19045
   C       -4.62659         1.39577        -5.17922
   C       -5.35466         0.78231        -6.16998
   C       -4.65249         0.18483        -7.22067
   C       -3.23781         0.23534        -7.22089
   C       -2.50175         0.85967        -6.22077
   S       -2.58076        -0.57239        -8.60947
   C       -4.17164        -0.95998        -9.16715
   C       -5.15446        -0.51070        -8.35663
   C       -5.13865         2.07667        -3.97674
   O       -6.31088         2.23903        -3.70578
   C       -3.93942         2.48020        -3.20339
   C       -3.86744         2.93020        -1.91236
   C       -4.87026         3.30692        -0.99826
   C       -6.23672         3.50953        -1.13638
   C       -6.82693         3.91892         0.04952
   C       -5.92805         4.03899         1.12775
   S       -4.32158         3.64766         0.64948
   C       -6.52527         4.44080         2.31448
   C       -7.88929         4.64174         2.16003
   S       -8.44346         4.33339         0.52873
   C       -8.80311         5.05137         3.16797
   C      -10.17245         5.25169         2.86678
   C      -11.14491         5.66693         3.83651
   N      -12.42486         5.83451         3.44571
   C      -12.74650         5.61045         2.20280
   C      -11.79186         5.19899         1.25132
   N      -10.54727         5.03272         1.59398
   C      -10.78042         5.89373         5.18971
   C       -9.41716         5.68712         5.49010
   C       -8.43833         5.28034         4.51035
   N       -7.22431         5.16048         5.05500
   S       -7.30260         5.51595         6.61513
   N       -8.86865         5.84281         6.69659
   C      -11.68672         6.29364         6.21265
   C      -13.03736         6.58423         6.09442
   C      -13.59887         6.93064         7.31531
   C      -12.69373         6.91350         8.39047
   S      -11.11116         6.46197         7.86369
   C      -13.26133         7.27747         9.60503
   C      -14.61657         7.54459         9.49375
   S      -15.17853         7.39079         7.83232
   C      -15.44041         8.00943        10.54475
   C      -16.79561         8.10157        10.61256
   C      -17.85473         7.52156         9.81438
   C      -17.83310         6.27752         9.24000
   C      -18.92329         5.71438         8.54861
   N      -19.78036         5.22374         7.96353
   C      -16.74541         5.39088         9.38357
   N      -15.90289         4.62627         9.53521
   C      -19.03705         8.35413         9.99675
   C      -18.79590         9.25041        11.07100
   C      -17.41869         9.06343        11.56475
   O      -16.88006         9.60700        12.50163
   C      -19.74776        10.13699        11.51406
   C      -20.98420        10.14886        10.86114
   C      -21.20795         9.25975         9.78207
   C      -20.25089         8.35375         9.33931
   S      -22.79973         9.46144         9.12185
   C      -23.14755        10.70383        10.27440
   C      -22.12388        10.96309        11.11642
   H       -6.43285         0.76382        -6.13231
   H       -1.42565         0.86608        -6.26511
   H       -4.27345        -1.51040       -10.08224
   H       -6.20295        -0.65874        -8.54202
   H       -2.87108         2.99489        -1.48950
   H       -6.75812         3.35453        -2.06232
   H       -6.02024         4.58700         3.25051
   H      -13.78460         5.75716         1.93779
   H      -12.04779         5.00998         0.21883
   H      -13.55827         6.53237         5.15806
   H      -12.73295         7.32407        10.53950
   H      -14.90923         8.44291        11.38748
   H      -19.54426        10.80161        12.33928
   H      -20.45936         7.69699         8.51059
   H      -24.11295        11.17069        10.24838
   H      -22.15784        11.70209        11.89633
*
