# ORCA input file
# SCF done       -166.996252475298          0.000802032346
! CAM-B3LYP def2-SVP def2/J RIJCOSX Grid4 TightSCF
%maxcore 5000
%tddft
    Mode sTDDFT
    Ethresh 5.0
    maxcore 5000
end

%pal
  nprocs 6
  end
* xyz 0 1
   C       -0.06948        -5.79416         5.99718
   N        0.62843        -5.86694         4.90312
   N        0.11864        -6.25184         3.75327
   C       -1.14316        -6.60164         3.60109
   C       -2.01364        -6.56428         4.73421
   C       -1.44415        -6.13890         5.98648
   N       -2.41071        -6.17648         6.88446
   O       -3.49355        -6.59285         6.23960
   N       -3.28475        -6.83248         4.94873
   C       -1.58016        -6.99826         2.30546
   C       -2.84696        -7.39719         1.91680
   C       -2.88450        -7.70017         0.55883
   C       -1.63196        -7.52680        -0.07374
   S       -0.41760        -6.99524         0.99645
   C       -1.77023        -7.84871        -1.44632
   C       -3.11121        -8.22265        -1.68144
   C       -3.85011        -8.14609        -0.42940
   C       -5.16849        -8.43617        -0.23563
   C       -5.99944        -8.86535        -1.29239
   N       -6.67239        -9.21087        -2.15405
   C       -5.79142        -8.33138         1.02672
   N       -6.30986        -8.25285         2.04587
   C       -3.35430        -8.54674        -3.00873
   C       -2.20448        -8.42220        -3.78041
   S       -0.80438        -7.90257        -2.85508
   C       -2.05928        -8.64773        -5.15917
   C       -0.86322        -8.50907        -5.87264
   C       -0.99249        -8.79247        -7.27416
   N        0.07726        -8.76191        -8.07300
   C        1.22549        -8.43357        -7.52252
   C        2.42689        -8.47212        -8.39881
   O        2.40004        -8.92580        -9.52056
   C        3.65948        -7.94457        -7.78466
   C        3.75046        -7.57562        -6.50292
   C        2.62716        -7.64245        -5.55214
   O        2.74338        -7.34861        -4.38175
   C        1.33637        -8.08486        -6.13892
   N        0.29765        -8.13999        -5.33370
   C       -2.30618        -9.12631        -7.63598
   S       -3.33536        -9.12107        -6.23194
   C       -2.78166        -9.41337        -8.92891
   C       -2.06967        -9.27943       -10.11713
   C       -2.84703        -9.61622       -11.21739
   C       -4.14999       -10.03127       -10.87050
   S       -4.42723        -9.97640        -9.18774
   C       -4.85010       -10.37510       -12.04935
   C       -3.98956       -10.17474       -13.15271
   C       -2.71614        -9.66928       -12.66828
   C       -1.64899        -9.26774       -13.41428
   C       -0.50119        -8.66807       -12.84904
   N        0.41924        -8.13442       -12.42375
   C       -1.63680        -9.36875       -14.82307
   N       -1.61364        -9.45345       -15.96595
   C       -4.59904       -10.47845       -14.36722
   C       -5.90190       -10.90562       -14.18219
   S       -6.39500       -10.93595       -12.50309
   C       -6.85200       -11.29941       -15.16609
   N       -8.05004       -11.66852       -14.75772
   N       -9.00796       -12.04706       -15.57584
   C       -8.85941       -12.08936       -16.86640
   C       -7.62256       -11.71933       -17.45122
   C       -6.56500       -11.30528       -16.56594
   N       -5.51929       -11.01032       -17.30946
   O       -5.89576       -11.22434       -18.56629
   N       -7.14827       -11.64854       -18.68084
   H        0.43624        -5.46673         6.89104
   H       -3.67320        -7.45247         2.60318
   H       -4.29867        -8.85648        -3.41933
   H        4.51377        -7.89701        -8.44627
   H        4.68059        -7.21402        -6.08562
   H       -1.04380        -8.95699       -10.13191
   H       -4.14774       -10.40403       -15.34063
   H       -9.70264       -12.41181       -17.45541
*
