# ORCA input file
# SCF done       -201.259866409687          0.000983367191
! CAM-B3LYP def2-SVP def2/J RIJCOSX Grid4 TightSCF
%maxcore 5000
%tddft
    Mode sTDDFT
    Ethresh 5.0
    maxcore 5000
end

%pal
  nprocs 6
  end
* xyz 0 1
   C       -2.08404         0.76856        -4.85002
   C       -0.78129         1.15251        -4.66731
   C        0.32352         0.51167        -5.26827
   N        1.26175         0.03635        -5.72824
   C       -0.34148         2.21644        -3.85108
   N        0.09939         3.05586        -3.20303
   C       -2.52303        -0.36122        -5.66350
   C       -3.93080        -0.48287        -5.55418
   C       -4.64582        -1.45847        -6.20533
   C       -3.93752        -2.35853        -7.00847
   C       -2.53210        -2.22866        -7.11549
   C       -1.80972        -1.24279        -6.45419
   S       -1.85599        -3.43923        -8.16168
   C       -3.44715        -4.09627        -8.43635
   C       -4.43601        -3.44343        -7.77975
  Br       -3.65327        -5.58056        -9.56359
   C       -4.43739         0.57807        -4.66928
   O       -5.59946         0.75778        -4.34610
   C       -3.27069         1.37216        -4.26885
   C       -3.30836         2.52300        -3.52552
   C       -4.39597         3.20315        -2.95526
   C       -4.22879         4.43000        -2.30141
   C       -5.42242         4.95045        -1.84134
   C       -6.52200         4.10498        -2.12288
   S       -6.08486         2.69426        -2.96852
   C       -7.69753         4.73879        -1.63704
   C       -7.34012         5.97703        -1.07066
   C       -5.90299         6.14828        -1.16865
   C       -5.17007         7.21341        -0.73373
   C       -3.76714         7.27279        -0.87278
   N       -2.62730         7.32858        -0.98160
   C       -5.77216         8.33336        -0.12204
   N       -6.25998         9.24993         0.36507
   C       -8.44185         6.68973        -0.59737
   C       -9.61430         5.99423        -0.79404
   S       -9.38019         4.44885        -1.56028
   C      -10.93787         6.46149        -0.45823
   N      -11.95516         5.60655        -0.56641
   C      -13.15206         6.07498        -0.25593
   C      -13.36200         7.38610         0.13800
   C      -12.23399         8.21767         0.19908
   N      -11.02589         7.73101        -0.08724
   C      -12.32222         9.62399         0.52492
   C      -11.21811        10.39747         0.53763
   C      -11.16402        11.80224         0.74860
   C      -12.18701        12.71211         0.95672
   C      -11.71233        14.01980         1.04637
   C      -10.31309        14.10323         0.91073
   S       -9.59125        12.57982         0.67780
   C       -9.93259        15.46799         0.97090
   C      -11.09416        16.24692         1.14191
   C      -12.24759        15.36388         1.19450
   C      -13.55494        15.73470         1.31270
   C      -14.60236        14.79071         1.34611
   N      -15.44847        14.01796         1.38380
   C      -13.92839        17.09217         1.40745
   N      -14.21538        18.19981         1.48288
   C      -10.83313        17.61131         1.14651
   C       -9.48365        17.88680         0.97837
   S       -8.52630        16.41450         0.85500
   C       -8.82380        19.13404         0.92342
   C       -9.33126        20.36666         0.64690
   C      -10.58251        20.83206         0.08484
   C      -11.38235        20.17109        -0.81163
   C      -12.51665        20.74492        -1.42500
   N      -13.44272        21.16443        -1.95680
   C      -11.11494        18.88330        -1.31423
   N      -10.92596        17.84993        -1.77801
   C      -10.70037        22.25038         0.41050
   C       -9.46233        22.70398         0.93231
   C       -8.53077        21.56526         1.03025
   O       -7.37505        21.57407         1.38496
   C       -9.24506        24.01515         1.28071
   C      -10.30230        24.91674         1.11906
   C      -11.54208        24.44832         0.61984
   C      -11.75996        23.12407         0.25936
   S      -12.71279        25.72661         0.51500
   C      -11.53652        26.85973         1.12592
   C      -10.32917        26.31013         1.39948
  Br      -12.01321        28.65952         1.34626
   H       -5.71726        -1.52470        -6.09977
   H       -0.74072        -1.18634        -6.57119
   H       -5.47422        -3.71465        -7.83636
   H       -2.36419         3.02597        -3.35422
   H       -3.26493         4.89576        -2.19445
   H       -8.41998         7.65838        -0.13472
   H      -13.96722         5.36742        -0.33634
   H      -14.34573         7.75570         0.37598
   H      -13.30638        10.02190         0.72191
   H      -10.27287         9.90934         0.33962
   H      -13.22139        12.43022         1.02649
   H      -11.57200        18.37665         1.30068
   H       -7.76961        19.12852         1.18578
   H       -8.28927        24.33611         1.66410
   H      -12.72271        22.81011        -0.10864
   H       -9.49090        26.86301         1.78234
*
