# ORCA input file
# SCF done       -207.612827377471          0.000648508852
! CAM-B3LYP def2-SVP def2/J RIJCOSX Grid4 TightSCF
%maxcore 5000
%tddft
    Mode sTDDFT
    Ethresh 5.0
    maxcore 5000
end

%pal
  nprocs 6
  end
* xyz 0 1
   C        0.96631        -0.99548         0.25793
   C        1.37908        -1.69110         1.36420
   C        1.75171        -1.08312         2.58262
   N        2.07085        -0.64312         3.59259
   C        1.58025        -3.08504         1.38728
   N        1.78052        -4.21415         1.44216
   C        0.99869         0.46164         0.13211
   C        1.00274         0.80155        -1.23318
   C        1.07331         2.11452        -1.65238
   C        1.12677         3.11250        -0.68692
   C        1.10280         2.78253         0.67374
   C        1.04288         1.45728         1.09258
  Cl        1.14787         4.02759         1.85318
  Cl        1.21704         4.75748        -1.16828
   C        0.90012        -0.42770        -2.04630
   O        0.92473        -0.53218        -3.24966
   C        0.70193        -1.52856        -1.06135
   C        0.26720        -2.73655        -1.52255
   C       -0.33608        -3.79941        -0.82191
   C       -0.93835        -3.80098         0.43085
   C       -1.44805        -5.04544         0.76700
   C       -1.24552        -6.01632        -0.24071
   S       -0.44682        -5.37729        -1.59944
   C       -1.77504        -7.24770         0.20504
   C       -2.30872        -7.05943         1.49953
   C       -2.11169        -5.67439         1.89508
   C       -2.44216        -5.08929         3.08223
   C       -3.07731        -5.79943         4.12269
   N       -3.59981        -6.37078         4.96831
   C       -2.16060        -3.72912         3.33037
   N       -1.92678        -2.62099         3.51019
   C       -2.85271        -8.21748         2.03288
   C       -2.74521        -9.29554         1.16003
   S       -1.95070        -8.85531        -0.34559
   C       -3.18383       -10.63173         1.35769
   C       -3.83200       -11.09633         2.53440
   C       -4.23205       -12.46589         2.66519
   N       -4.83876       -12.88337         3.79088
   C       -5.05874       -12.03406         4.75444
   C       -4.66909       -10.68575         4.62420
   N       -4.07835       -10.24516         3.54892
   C       -4.02139       -13.43978         1.65802
   C       -3.38709       -12.97814         0.48596
   C       -2.98215       -11.60129         0.35226
   N       -2.40016       -11.37255        -0.82732
   S       -2.36494       -12.73519        -1.67540
   N       -3.07931       -13.68447        -0.60439
   C       -4.42588       -14.78345         1.85397
   C       -4.26841       -15.83686         0.95867
   C       -4.75995       -17.02764         1.47019
   C       -5.30128       -16.88200         2.76679
   S       -5.20002       -15.27050         3.34821
   C       -5.75660       -18.14657         3.19629
   C       -5.49967       -19.09934         2.17862
   C       -4.88381       -18.41602         1.05323
   C       -4.51806       -18.94792        -0.14753
   C       -4.72577       -20.30391        -0.48324
   N       -4.90322       -21.39323        -0.79172
   C       -3.92185       -18.16549        -1.16027
   N       -3.43434       -17.53840        -1.98705
   C       -5.87534       -20.38682         2.52601
   C       -6.43001       -20.44579         3.80117
   S       -6.49342       -18.84474         4.55825
   C       -6.97335       -21.50520         4.55029
   C       -6.89148       -22.86008         4.36371
   C       -7.59091       -23.83557         5.18258
   C       -8.62942       -23.59512         6.04382
   C       -9.27485       -24.59676         6.80079
   N       -9.83571       -25.35951         7.44930
   C       -9.23054       -22.33949         6.27722
   N       -9.78761       -21.36183         6.50729
   C       -7.04830       -25.15322         4.86432
   C       -6.10430       -25.01489         3.83336
   C       -5.97686       -23.59173         3.45480
   O       -5.22986       -23.14634         2.61196
   C       -5.42789       -26.09843         3.31162
   C       -5.69813       -27.35657         3.83522
   C       -6.63211       -27.50402         4.86782
   C       -7.31310       -26.40854         5.38757
  Cl       -6.94891       -29.06266         5.51364
  Cl       -4.88107       -28.73213         3.21460
   H        1.08653         2.35736        -2.70311
   H        1.01899         1.23713         2.14750
   H        0.34167        -2.85825        -2.59934
   H       -1.03451        -2.91737         1.03485
   H       -3.31172        -8.31608         2.99891
   H       -5.54761       -12.41131         5.64098
   H       -4.84346        -9.96262         5.40837
   H       -3.81081       -15.70123        -0.00396
   H       -5.75492       -21.25566         1.90557
   H       -7.52081       -21.17389         5.42528
   H       -4.71056       -25.96705         2.51694
   H       -8.02192       -26.56181         6.18453
*
