# ORCA input file
# SCF done       -196.320061355541          0.000470318715
! CAM-B3LYP def2-SVP def2/J RIJCOSX Grid4 TightSCF
%maxcore 5000
%tddft
    Mode sTDDFT
    Ethresh 5.0
    maxcore 5000
end

%pal
  nprocs 6
  end
* xyz 0 1
   C        3.56017        -2.43686        -3.16962
   O        3.19941        -3.37484        -3.84546
   C        4.45243        -1.34946        -3.62158
   C        4.63829        -0.42158        -2.58407
   C        5.44667         0.68401        -2.79600
   C        6.05199         0.83902        -4.03787
   C        5.85897        -0.09098        -5.06275
   C        5.04924        -1.19984        -4.85601
  Br        6.69463         0.14513        -6.74031
  Br        7.15485         2.34789        -4.32167
   C        3.88092        -0.86419        -1.41476
   C        3.85256        -0.20685        -0.21293
   C        4.54358         0.99843         0.04408
   N        5.07567         1.97631         0.32153
   C        3.15680        -0.60431         0.94960
   N        2.63271        -0.84734         1.94237
   C        3.21065        -2.10744        -1.76847
   C        2.38744        -2.79484        -0.91586
   C        1.70594        -4.01863        -1.04956
   C        1.65894        -4.98081        -2.05388
   C        0.86510        -6.06273        -1.70624
   C        0.28420        -5.93695        -0.42158
   S        0.72362        -4.49040         0.34965
   C       -0.49228        -7.08984        -0.16638
   C       -0.40393        -7.95151        -1.27661
   C        0.44485        -7.33076        -2.28371
   C        0.76889        -7.83549        -3.50659
   C        0.27956        -9.08135        -3.95956
   N       -0.11488       -10.08711        -4.34165
   C        1.61207        -7.16478        -4.42108
   N        2.29613        -6.65244        -5.18413
   C       -1.12298        -9.13174        -1.10472
   C       -1.76439        -9.17277         0.12213
   S       -1.47155        -7.72774         1.07713
   C       -2.57841       -10.22798         0.63325
   C       -3.25451       -10.15893         1.84218
   C       -4.04709       -11.19426         2.34014
   C       -4.22882       -12.40153         1.68221
   C       -3.54920       -12.52181         0.43748
   C       -2.74163       -11.44670        -0.08370
   N       -2.25703       -11.85463        -1.24022
   O       -2.72175       -13.08148        -1.43021
   N       -3.49731       -13.50365        -0.44123
   C       -5.03288       -13.46517         2.19135
   C       -5.18999       -14.72879         1.64592
   C       -6.04483       -15.52092         2.40786
   C       -6.55159       -14.85088         3.53804
   S       -5.96274       -13.25524         3.66692
   C       -7.40447       -15.73122         4.24186
   C       -7.44022       -16.96593         3.55932
   C       -6.58392       -16.87294         2.38699
   C       -6.33634       -17.84799         1.46812
   C       -6.93002       -19.12628         1.55592
   N       -7.41808       -20.16108         1.62278
   C       -5.47554       -17.65135         0.36571
   N       -4.77919       -17.50592        -0.53251
   C       -8.26746       -17.89491         4.17575
   C       -8.84224       -17.40216         5.34121
   S       -8.37696       -15.72666         5.63679
   C       -9.77379       -18.09594         6.14171
   C      -10.24584       -17.81492         7.38866
   C      -11.55139       -18.39028         7.81370
   O      -12.16207       -19.28421         7.28041
   C      -11.95780       -17.58126         8.98524
   C      -10.92318       -16.68891         9.32336
   C       -9.78462       -16.93506         8.44039
   C       -8.48107       -16.63368         8.73385
   C       -7.38875       -17.16539         8.01689
   N       -6.48189       -17.61864         7.47899
   C       -8.08779       -15.84383         9.83366
   N       -7.72691       -15.18777        10.70282
   C      -11.09083       -15.80070        10.37102
   C      -12.29165       -15.82110        11.07198
   C      -13.30796       -16.72119        10.74201
   C      -13.14436       -17.61145         9.68777
  Br      -14.92352       -16.73637        11.72182
  Br      -12.53402       -14.59651        12.49057
   H        5.62145         1.42541        -2.03381
   H        4.88907        -1.92850        -5.63561
   H        2.22334        -2.33338         0.05062
   H        2.18773        -4.86800        -2.98368
   H       -1.19357        -9.93721        -1.81289
   H       -3.16740        -9.25749         2.43128
   H       -4.53868       -11.04582         3.29067
   H       -4.69278       -15.02592         0.74044
   H       -8.44163       -18.89732         3.82831
   H      -10.25497       -18.93936         5.65412
   H      -10.32711       -15.09180        10.64850
   H      -13.92414       -18.30907         9.42433
*
