# ORCA input file
# SCF done       -184.655094066448          0.002442542642
! CAM-B3LYP def2-SVP def2/J RIJCOSX Grid4 TightSCF
%maxcore 5000
%tddft
    Mode sTDDFT
    Ethresh 5.0
    maxcore 5000
end

%pal
  nprocs 6
  end
* xyz 0 1
   C        8.12325         1.33496         0.28221
   C        7.56171         2.34882        -0.65532
   N        8.10196         3.52873        -0.86694
   S        7.21624         4.33732        -1.95982
   N        6.10943         3.17617        -2.20042
   C        6.39493         2.14437        -1.43704
   C        5.56477         0.90209        -1.37120
   C        6.44573        -0.21208        -0.89126
   C        7.60720        -0.00930        -0.10081
   N        8.18083        -1.14231         0.23964
   S        7.33314        -2.38198        -0.37848
   N        6.19480        -1.48357        -1.10883
   C        4.44138         1.08137        -0.38668
   C        4.06185         2.22473         0.25735
   C        3.02246         1.98654         1.17374
   C        2.63178         0.64120         1.20462
   S        3.51858        -0.31996         0.10518
   C        1.67609         0.46491         2.24040
   C        1.45945         1.71282         2.85574
   C        2.28428         2.71327         2.18936
   C        2.38451         4.03974         2.49350
   C        1.63751         4.63500         3.53191
   N        1.04420         5.12720         4.38119
   C        3.26432         4.89717         1.79957
   N        3.98854         5.58986         1.24161
   C        0.65068         1.62365         3.98165
   C        0.27047         0.31252         4.24486
   S        0.86097        -0.81008         3.02898
   C       -0.29657        -0.17889         5.44892
   C       -0.42365        -1.56582         5.68450
   C       -0.54434        -2.10393         7.00705
   N       -0.56292        -3.44034         7.17778
   C       -0.50006        -4.21601         6.14329
   C       -0.38762        -3.68323         4.83339
   N       -0.33943        -2.40504         4.63401
   F       -0.32752        -4.48201         3.77176
   F       -0.54281        -5.52973         6.34636
   C       -0.56284        -1.28009         8.15391
   C       -0.70923         0.10488         7.89815
   C       -0.57266         0.64816         6.56458
   N       -0.67474         1.97629         6.56610
   S       -0.93184         2.49166         8.06301
   N       -0.90311         1.06690         8.79900
   C       -0.25277        -1.79753         9.43852
   C       -0.12523        -1.07789        10.62012
   C        0.47863        -1.82822        11.62175
   C        0.80540        -3.13268        11.20402
   S        0.31960        -3.45158         9.59962
   C        1.54916        -3.75622        12.24103
   C        1.68626        -2.85524        13.30532
   C        1.00669        -1.61914        12.96362
   C        0.93557        -0.48120        13.71294
   C        1.54961        -0.38280        14.97988
   N        2.06665        -0.29567        15.99993
   C        0.27150         0.67940        13.26274
   N       -0.25960         1.63042        12.90509
   C        2.50527        -3.35362        14.33242
   C        2.98494        -4.59937        14.03864
   S        2.42113        -5.20324        12.49857
   C        3.95853        -5.41020        14.85169
   C        4.86970        -4.46524        15.57340
   N        4.62698        -3.96239        16.76262
   S        5.81989        -2.93553        17.15722
   N        6.68679        -3.12162        15.79587
   C        6.07485        -3.97483        15.00549
   C        6.59092        -4.40972        13.67516
   C        6.02077        -5.75321        13.37092
   C        4.81189        -6.23614        13.94033
   N        4.51888        -7.45582        13.55315
   S        5.67048        -7.97645        12.53378
   N        6.58285        -6.63403        12.57577
   H        7.81412         1.57015         1.30761
   H        9.21436         1.35228         0.26630
   H        5.15157         0.65915        -2.35673
   H        4.51093         3.18509         0.08237
   H        0.36827         2.43753         4.62392
   H       -0.43261        -0.05117        10.69669
   H        2.74061        -2.83011        15.24129
   H        3.41689        -6.04893        15.55830
   H        7.68134        -4.43657        13.66679
   H        6.27766        -3.69288        12.90670
*
