# ORCA input file
# SCF done       -239.480719184347          0.000996720757
! CAM-B3LYP def2-SVP def2/J RIJCOSX Grid4 TightSCF
%maxcore 5000
%tddft
    Mode sTDDFT
    Ethresh 5.0
    maxcore 5000
end

%pal
  nprocs 6
  end
* xyz 0 1
   C        9.29875       -19.19162        14.33703
   C       10.62423       -19.33767        14.71151
   C       11.11204       -20.62491        14.94735
   C       12.46624       -20.79539        15.32673
   N       13.56132       -20.92677        15.63429
   C       10.28550       -21.75657        14.81334
   C       10.80674       -23.04862        15.06024
   N       11.20575       -24.10494        15.25246
   C        8.95079       -21.60416        14.43398
   C        8.48391       -20.32877        14.20155
   C        7.12194       -19.91970        13.78221
   O        6.19705       -20.68473        13.59858
   C        7.17112       -18.45398        13.64692
   C        8.49807       -18.00595        14.02396
   C        8.96049       -16.71701        14.11713
   C       10.27454       -16.37358        14.50109
   N       11.32538       -16.02170        14.80059
   C        8.22574       -15.53710        13.87232
   N        7.71648       -14.51999        13.71031
   C        6.18570       -17.60184        13.19912
   C        4.86407       -17.82551        12.79684
   S        3.97765       -16.41726        12.22270
   C        2.56427       -17.36684        11.92289
   C        2.78018       -18.69980        12.26365
   C        4.04851       -18.95397        12.74610
   C        1.39216       -16.79352        11.38331
   C        1.17511       -15.47417        11.02773
   C       -0.08527       -15.24465        10.49247
   C       -0.87085       -16.38199        10.42402
   S       -0.01989       -17.76406        11.04857
   C       -2.18073       -16.50165         9.90168
   S       -2.99157       -15.13555         9.18956
   C       -4.37856       -16.10563         8.77990
   C       -4.19869       -17.40972         9.20470
   C       -2.97535       -17.63006         9.82851
   C       -5.45046       -15.50832         8.06019
   C       -6.51511       -16.18053         7.56831
   C       -7.56124       -15.63608         6.74537
   C       -8.41809       -16.50673         6.10611
   C       -9.37846       -16.02720         5.19505
   C      -10.27936       -16.69704         4.37985
   C      -10.49218       -18.17316         4.32638
   C      -11.95792       -18.54870         4.61202
   N      -12.01298       -19.89945         5.13698
   C       -9.99577       -18.75195         2.98911
   N       -9.98858       -20.20705         3.02632
   C      -10.93827       -15.69283         3.57740
   C      -11.81625       -15.78574         2.56111
   C      -12.25001       -14.58095         1.79251
   C      -11.82550       -13.27748         2.38489
   C      -10.94170       -13.19816         3.39596
   C      -10.42949       -14.37503         3.99310
   C       -9.47776       -14.59165         4.96624
   C       -8.63413       -13.71450         5.68879
   C       -7.70764       -14.22211         6.53767
   C      -13.71140       -14.66284         1.44767
   C      -14.67331       -13.91898         1.99724
   C      -16.04704       -13.96424         1.59048
   S      -16.57724       -14.96291         0.26795
   C      -18.20360       -14.35377         0.39851
   C      -18.30427       -13.44470         1.42774
   C      -17.09470       -13.22799         2.09319
   C      -19.20206       -14.77215        -0.52023
   C      -19.07280       -15.68825        -1.54513
   C      -20.22801       -15.83433        -2.30635
   C      -21.27016       -15.03316        -1.88299
   S      -20.80017       -14.08738        -0.49468
   C      -22.55729       -14.90771        -2.45836
   S      -22.98866       -15.79492        -3.88372
   C      -24.57647       -15.06445        -3.91849
   C      -24.72493       -14.18213        -2.85510
   C      -23.60403       -14.09560        -2.04572
   C      -25.46294       -15.37857        -4.96452
   C      -26.74047       -14.90597        -5.08370
   C      -27.52664       -15.20384        -6.20509
   C      -28.78539       -14.76146        -6.52628
   C      -29.52606       -15.47610        -7.59089
   O      -29.08721       -16.29848        -8.36297
   C      -30.92698       -15.00603        -7.48004
   C      -32.03506       -15.43322        -8.17864
   C      -33.27156       -14.86682        -7.86238
   C      -33.36237       -13.89420        -6.84883
   C      -32.22964       -13.46124        -6.15560
   C      -31.00422       -14.01671        -6.48083
   C      -29.65401       -13.75589        -5.96659
   C      -29.30970       -12.63217        -5.25695
   C      -27.99603       -12.21016        -4.96829
   N      -26.96373       -11.77469        -4.71588
   C      -30.24015       -11.67731        -4.79477
   N      -30.94367       -10.86918        -4.38239
   C      -34.62757       -13.34659        -6.52275
   N      -35.64785       -12.90409        -6.25044
   C      -34.43481       -15.27701        -8.55607
   N      -35.36342       -15.62476        -9.12931
   H       11.29124       -18.49836        14.82404
   H        8.30158       -22.45951        14.32379
   H        6.47419       -16.56016        13.12493
   H        2.01395       -19.44660        12.15047
   H        4.39474       -19.92312        13.05448
   H        1.92615       -14.71499        11.15721
   H       -0.43481       -14.28552        10.15404
   H       -4.93598       -18.17873         9.06415
   H       -2.65668       -18.58121        10.21812
   H       -5.34166       -14.44902         7.87553
   H       -6.57795       -17.24651         7.74447
   H       -8.32529       -17.57035         6.27494
   H       -9.90221       -18.63424         5.12476
   H      -12.55843       -18.40960         3.69794
   H      -12.35480       -17.87268         5.37717
   H      -11.61757       -20.53271         4.44718
   H      -12.97331       -20.17360         5.31333
   H       -9.00156       -18.32109         2.77686
   H      -10.66555       -18.44797         2.18047
   H       -9.33086       -20.53099         3.72889
   H       -9.69177       -20.58036         2.13079
   H      -12.21312       -16.73218         2.22401
   H      -11.71742       -14.66413         0.82533
   H      -12.21945       -12.39144         1.91086
   H      -10.61490       -12.23835         3.76903
   H       -8.72918       -12.64797         5.54569
   H       -7.06407       -13.55259         7.08614
   H      -13.97287       -15.39009         0.68912
   H      -14.44038       -13.20668         2.77741
   H      -19.22810       -12.95201         1.67481
   H      -16.98183       -12.54517         2.91640
   H      -18.15711       -16.22230        -1.72662
   H      -20.31737       -16.49579        -3.14989
   H      -25.61563       -13.60103        -2.70150
   H      -23.52671       -13.45944        -1.18169
   H      -25.07600       -16.02113        -5.74575
   H      -27.15066       -14.29558        -4.29614
   H      -27.12472       -15.93120        -6.90441
   H      -31.94872       -16.18601        -8.94740
   H      -32.34122       -12.71748        -5.38281
*
