# ORCA input file
# SCF done       -208.826163258190          0.000645894872
! CAM-B3LYP def2-SVP def2/J RIJCOSX Grid4 TightSCF
%maxcore 5000
%tddft
    Mode sTDDFT
    Ethresh 5.0
    maxcore 5000
end

%pal
  nprocs 6
  end
* xyz 0 1
   C        6.83576         2.93580         7.03886
   C        5.62611         2.89734         7.67640
   C        4.34388         3.35127         7.13170
   O        4.26817         3.81696         6.01644
   C        3.15662         3.20118         8.04695
   S        5.79507         2.23131         9.27566
   C        7.46815         2.01467         9.05519
   C        7.90658         2.42674         7.81554
   C        9.26140         2.37667         7.32771
   C       10.28240         1.78340         7.96590
   C       11.64948         1.78516         7.50242
   C       12.03061         1.69534         6.15418
   C       11.22752         1.43014         4.93858
   O       10.04980         1.21284         4.80872
   N       12.13384         1.43229         3.86512
   C       13.44764         1.63135         4.28269
   O       14.42461         1.67962         3.58079
   C       13.37141         1.76058         5.75753
   C       14.41149         1.89274         6.65657
   C       14.05468         1.93335         7.99850
   C       12.72317         1.87964         8.41831
   C       12.56163         1.95626         9.87784
   O       11.55454         1.95342        10.52582
   S       14.18633         2.06450        10.65031
   C       15.05058         2.03737         9.07989
   O       16.23894         2.09533         8.97480
   C       11.67545         1.23182         2.56428
   C       12.41949         1.34896         1.46019
   C       11.93740         1.17303         0.10638
   C       12.71717         1.63958        -0.92977
   C       12.27943         1.52857        -2.26373
   C       12.85103         1.93466        -3.46718
   C       14.15889         2.60256        -3.71092
   C       14.26206         3.96652        -3.00588
   N       15.49107         4.62934        -3.40115
   C       15.33235         1.68937        -3.30579
   N       15.36886         0.54273        -4.19584
   C       11.93274         1.54891        -4.51303
   C       11.99097         1.72023        -5.84708
   C       10.89288         1.24656        -6.73730
   C        9.79743         0.50730        -6.04563
   C        9.75013         0.35760        -4.70639
   C       10.78396         0.87828        -3.89492
   C       11.00271         0.88023        -2.52580
   C       10.23481         0.38873        -1.44929
   C       10.68768         0.53908        -0.17566
   C       11.50910         0.43922        -7.85259
   C       11.98617         1.00470        -8.95525
   C       12.67916         0.29881       -10.02104
   C       12.21353        -0.87678       -10.61256
   C       10.97302        -1.64764       -10.36657
   O       10.09683        -1.47090        -9.55729
   N       10.98208        -2.69158       -11.29711
   C       12.12657        -2.68823       -12.09810
   O       12.41605        -3.50598       -12.92958
   C       12.89678        -1.49567       -11.66760
   C       14.07901        -0.99804       -12.18060
   C       14.55820         0.16836       -11.59557
   C       13.88217         0.80310       -10.54930
   C       14.55721         2.00251       -10.03604
   O       14.22873         2.70728        -9.12347
   S       16.04912         2.29094       -10.99586
   C       15.80088         0.83329       -12.02115
   O       16.55109         0.50396       -12.88967
   C        9.93410        -3.61187       -11.34843
   C        9.69241        -4.43073       -12.37309
   C        8.59799        -5.37644       -12.37853
   C        7.83291        -5.62669       -13.50574
   C        7.95197        -4.97756       -14.80680
   O        8.69800        -4.03735       -14.98713
   C        7.08620        -5.55090       -15.90112
   S        6.61166        -6.81883       -13.18813
   C        7.12698        -6.96996       -11.56851
   C        8.18480        -6.15906       -11.25532
   C        8.85616        -6.15405        -9.96575
   C        8.28569        -6.47881        -8.81309
   H        6.94454         3.30755         6.03591
   H        3.03061         2.15593         8.32204
   H        2.26060         3.55854         7.54711
   H        3.31916         3.77337         8.95834
   H        8.05190         1.61189         9.85938
   H        9.42398         2.88214         6.38738
   H       10.12005         1.33385         8.93387
   H       15.44186         1.94375         6.34390
   H       10.61954         0.99840         2.55227
   H       13.45903         1.62688         1.55368
   H       13.66310         2.10988        -0.70809
   H       14.26486         2.77629        -4.78595
   H       14.29704         3.82983        -1.92334
   H       13.35256         4.54608        -3.24264
   H       15.48572         4.82052        -4.39771
   H       15.59340         5.51189        -2.91362
   H       15.23236         1.41559        -2.24486
   H       16.25725         2.25488        -3.43260
   H       14.56411        -0.05447        -4.03367
   H       16.20699        -0.00481        -4.04031
   H       12.82665         2.20058        -6.33640
   H       10.45585         2.14827        -7.19647
   H        9.03227         0.09749        -6.68643
   H        8.93019        -0.16833        -4.23948
   H        9.29235        -0.10034        -1.64702
   H       10.10450         0.15650         0.64679
   H       11.60625        -0.61954        -7.66925
   H       11.93384         2.07915        -9.07698
   H       14.60080        -1.47744       -12.99318
   H        9.29296        -3.54933       -10.47846
   H       10.29220        -4.38328       -13.26990
   H        6.03661        -5.45843       -15.62833
   H        7.30881        -6.60693       -16.03923
   H        7.26904        -5.01420       -16.82798
   H        6.63697        -7.67618       -10.92756
   H        9.89799        -5.86279        -9.99468
   H        7.24535        -6.74850        -8.74528
   H        8.84023        -6.47639        -7.89099
*
