# ORCA input file
# SCF done       -235.749918178882          0.000844692964
! CAM-B3LYP def2-SVP def2/J RIJCOSX Grid4 TightSCF
%maxcore 5000
%tddft
    Mode sTDDFT
    Ethresh 5.0
    maxcore 5000
end

%pal
  nprocs 6
  end
* xyz 0 1
   C       20.27756        -9.03091        -0.97554
   C       21.07968        -9.91920        -1.68540
   C       22.55661        -9.68983        -1.73964
   C       20.51356       -11.02239        -2.34402
   C       21.37729       -11.97204        -3.11076
   C       19.14032       -11.23078        -2.27874
   C       18.35197       -10.34479        -1.57301
   C       18.90850        -9.23592        -0.91641
   C       17.83964        -8.48904        -0.26700
   C       17.98199        -7.28293         0.36734
   C       19.21600        -6.61953         0.53026
   N       20.18806        -6.03071         0.69519
   C       16.93210        -6.51927         0.91965
   N       16.13944        -5.82948         1.38396
   C       16.59441        -9.21092        -0.48753
   C       16.89262       -10.37621        -1.36781
   O       16.13293       -11.22418        -1.78264
   C       15.43118        -8.97265         0.17525
   C       14.14226        -9.57503        -0.02506
   C       13.29050        -9.68875         1.09056
   C       12.06549       -10.29196         0.95596
   C       11.62945       -10.70839        -0.31604
   C       12.43277       -10.53989        -1.43538
   C       13.68692        -9.98877        -1.28406
   C       10.29856       -11.25542        -0.19188
   C        9.90066       -11.17787         1.15311
   C       10.99044       -10.54309         1.99716
   C       11.42065       -11.56926         3.06556
   C       12.55622       -11.14616         3.98849
   C       10.56934        -9.17485         2.57390
   C        9.44141        -9.19808         3.59709
   C        8.68821       -11.70329         1.54172
   C        7.84516       -12.28148         0.58765
   C        8.24315       -12.31852        -0.75128
   C        9.46513       -11.81622        -1.14859
   C        6.55360       -12.86031         0.97493
   C        6.13911       -14.04254         0.42497
   C        4.87807       -14.58753         0.76125
   C        4.22427       -15.72915         0.33222
   C        4.69647       -16.79482        -0.60334
   C        5.21967       -16.23651        -1.93791
   N        4.94290       -17.18681        -3.00274
   C        5.75261       -17.67373         0.09080
   N        5.12120       -18.43274         1.15790
   C        2.94311       -15.74709         0.99827
   C        1.92608       -16.62401         0.92801
   C        0.66135       -16.41874         1.68774
   C        0.65202       -15.20703         2.55965
   C        1.68164       -14.34133         2.62168
   C        2.85283       -14.56063         1.85857
   C        4.03533       -13.86338         1.70779
   C        4.50402       -12.65488         2.27349
   C        5.72329       -12.17549         1.91808
   C        0.29860       -17.71174         2.38120
   C       -0.01328       -17.85610         3.66405
   C       -0.38743       -19.12903         4.27299
   C       -1.31920       -19.13275         5.31663
   C       -1.70704       -20.32704         5.87698
   C       -1.15594       -21.53682         5.42463
   C       -0.21944       -21.54207         4.40174
   C        0.15169       -20.33975         3.83128
   C       -1.70904       -22.61608         6.21546
   C       -2.60022       -22.07065         7.15679
   C       -2.74998       -20.58360         6.94302
   C       -2.51516       -19.76669         8.21943
   C       -1.13412       -20.01167         8.81639
   C       -4.12346       -20.26034         6.30206
   C       -5.34220       -20.74755         7.07364
   C       -3.18230       -22.87446         8.10623
   C       -2.96353       -24.25823         8.06242
   C       -2.10336       -24.79392         7.09590
   C       -1.45530       -23.98012         6.19028
   C       -3.59982       -25.10518         9.04219
   C       -4.07253       -26.35940         8.86925
   C       -4.34082       -27.23849        10.04480
   O       -4.41754       -26.89405        11.20193
   C       -4.43112       -28.59991         9.48799
   C       -4.36662       -28.54356         8.08355
   C       -4.41356       -29.71702         7.35046
   C       -4.53325       -30.93727         8.00845
   C       -4.60961       -30.98641         9.40988
   C       -4.55430       -29.80735        10.14565
   C       -4.75088       -32.29822        10.11325
   C       -4.58457       -32.19970         7.20879
   C       -4.29678       -27.14777         7.66941
   C       -4.63201       -26.66069         6.43503
   C       -4.83659       -25.29164         6.16312
   N       -5.09321       -24.20464         5.89818
   C       -4.90925       -27.47810         5.32085
   N       -5.12352       -28.10371         4.38230
   H       20.73730        -8.19466        -0.47364
   H       22.82898        -8.79734        -1.18321
   H       22.88794        -9.57179        -2.77078
   H       23.09139       -10.54034        -1.31781
   H       22.12430       -12.42268        -2.45808
   H       21.90818       -11.45063        -3.90666
   H       20.77927       -12.76421        -3.55296
   H       18.68219       -12.07375        -2.77449
   H       15.46901        -8.26780         0.99882
   H       13.63220        -9.31227         2.04319
   H       12.08043       -10.83282        -2.41263
   H       14.30921        -9.83641        -2.14962
   H       11.71524       -12.48287         2.54163
   H       10.54494       -11.81255         3.66970
   H       13.48659       -11.03755         3.43859
   H       12.70529       -11.91142         4.74792
   H       12.33170       -10.21066         4.49375
   H       10.26798        -8.54440         1.73270
   H       11.44879        -8.71151         3.02409
   H        8.51552        -9.54478         3.14751
   H        9.27529        -8.18962         3.97075
   H        9.68441        -9.83499         4.44356
   H        8.38868       -11.71325         2.57879
   H        7.57255       -12.74120        -1.48519
   H        9.76909       -11.86325        -2.18365
   H        6.78482       -14.57243        -0.25827
   H        3.84987       -17.44171        -0.84784
   H        6.29122       -15.99339        -1.84728
   H        4.68356       -15.31371        -2.17690
   H        5.42795       -18.06091        -2.82883
   H        5.26578       -16.82609        -3.89386
   H        6.57850       -17.03150         0.44105
   H        6.16195       -18.39538        -0.62316
   H        4.71178       -17.79445         1.83350
   H        5.80797       -18.99965         1.64356
   H        1.98508       -17.51350         0.31580
   H       -0.12525       -16.27222         0.92322
   H       -0.25532       -15.02967         3.11696
   H        1.62423       -13.46490         3.25179
   H        3.88105       -12.12058         2.97648
   H        6.07933       -11.23981         2.32443
   H        0.29582       -18.57282         1.72597
   H       -0.05063       -16.99580         4.31835
   H       -1.73590       -18.19658         5.66026
   H        0.21470       -22.46832         4.05599
   H        0.89218       -20.32968         3.04562
   H       -3.27587       -20.02573         8.95688
   H       -2.62647       -18.70609         7.98427
   H       -1.00952       -21.06090         9.07542
   H       -1.00193       -19.41627         9.71701
   H       -0.35586       -19.74088         8.10614
   H       -4.14433       -20.71491         5.30885
   H       -4.18018       -19.17677         6.17320
   H       -5.37712       -21.83333         7.08521
   H       -6.24326       -20.38856         6.58104
   H       -5.34639       -20.37510         8.09505
   H       -3.83396       -22.47050         8.86576
   H       -1.90909       -25.85757         7.09718
   H       -0.76344       -24.39989         5.47557
   H       -3.66234       -24.71551        10.05372
   H       -4.34963       -29.69968         6.27366
   H       -4.61106       -29.82502        11.22379
   H       -3.91110       -32.95164         9.87867
   H       -5.66098       -32.80653         9.79614
   H       -4.79005       -32.15565        11.18965
   H       -4.51772       -31.98582         6.14572
   H       -5.51550       -32.73312         7.39769
   H       -3.76452       -32.86208         7.48445
*
