# ORCA input file
# SCF done       -207.107080432246          0.000569036615
! CAM-B3LYP def2-SVP def2/J RIJCOSX Grid4 TightSCF
%maxcore 5000
%tddft
    Mode sTDDFT
    Ethresh 5.0
    maxcore 5000
end

%pal
  nprocs 6
  end
* xyz 0 1
   C        4.01328        -1.51508        -0.29738
   S        2.93762        -0.21893         0.02738
   C        4.21161         0.95037        -0.19645
   C        5.39545         0.32791        -0.50641
   C        5.27338        -1.08597        -0.57194
   C        6.40306        -1.98205        -0.97268
   C        7.74094        -1.25774        -0.85851
   C        7.65729         0.10613        -1.55940
   O        7.18827         0.02139        -2.89070
   C        8.10837        -0.50683        -3.80656
   C        6.69619         1.01526        -0.78830
   C        3.89484         2.36155        -0.06713
   C        4.83204         3.27941         0.42223
   C        4.49093         4.60781         0.51550
   C        3.21482         5.05258         0.13810
   C        2.27364         4.14878        -0.32884
   C        2.62181         2.81598        -0.42642
   C        3.14355         6.48460         0.35383
   C        4.37741         6.92181         0.86016
   C        5.33622         5.76220         1.00223
   C        6.58532         5.94935         0.12175
   C        6.24521         6.13797        -1.35152
   C        5.76319         5.56947         2.46890
   C        4.57808         5.37909         3.40791
   C        4.57963         8.24553         1.17194
   C        3.54146         9.16444         0.98633
   C        2.32015         8.71644         0.47777
   C        2.11165         7.38801         0.15775
   C        3.71613        10.57702         1.34384
   C        3.16059        11.56841         0.58252
   C        3.28608        12.92545         0.96512
   C        2.78664        14.09156         0.41346
   C        1.95137        14.27233        -0.81377
   C        2.70914        13.83258        -2.07860
   N        2.13542        14.48509        -3.24292
   C        0.60128        13.54946        -0.66682
   N       -0.31617        13.92830        -1.73338
   C        3.20340        15.17220         1.27694
   C        2.94283        16.49079         1.23848
   C        3.43616        17.41849         2.29764
   C        4.32577        16.78318         3.31448
   C        4.56493        15.45900         3.34831
   C        4.00766        14.60458         2.36792
   C        4.04338        13.23952         2.17268
   C        4.62605        12.19282         2.92418
   C        4.45986        10.90804         2.52251
   C        4.01500        18.64878         1.64094
   C        5.31093        18.94727         1.60016
   C        5.90184        20.12404         0.98093
   C        5.12723        21.15946         0.44223
   C        5.74128        22.25372        -0.11812
   C        7.14281        22.32234        -0.19543
   C        7.92162        21.30792         0.33809
   C        7.29514        20.22789         0.93042
   C        7.50851        23.52463        -0.91896
   C        6.33207        24.19476        -1.28695
   C        5.11321        23.47823        -0.74518
   C        4.48258        24.41028         0.31636
   C        3.35283        23.81046         1.14314
   C        4.11154        23.11690        -1.85101
   C        4.75455        22.30389        -2.96873
   C        6.38487        25.35672        -2.01931
   C        7.62885        25.87390        -2.39442
   C        8.79294        25.19164        -2.03691
   C        8.74426        24.02338        -1.29982
   C        7.71440        27.09136        -3.18947
   S        8.75598        27.11377        -4.58671
   C        8.30263        28.73088        -4.94401
   C        7.41754        29.23332        -4.04321
   C        7.07958        28.29349        -3.03108
   C        6.22631        28.70113        -1.87046
   C        5.30630        29.85205        -2.26841
   C        6.13671        31.01987        -2.81951
   O        7.15300        31.44355        -1.93002
   C        6.69993        32.16240        -0.81507
   C        6.81787        30.60322        -4.12625
   H        3.64686        -2.52238        -0.27700
   H        6.24702        -2.28195        -2.01353
   H        6.40446        -2.88861        -0.36301
   H        8.53387        -1.86717        -1.29606
   H        7.99021        -1.08635         0.19028
   H        8.65992         0.57154        -1.56304
   H        7.66256        -0.38511        -4.79231
   H        8.30600        -1.57126        -3.63356
   H        9.06178         0.03663        -3.76990
   H        6.51904         1.92432        -1.36651
   H        7.18356         1.29293         0.15147
   H        5.80045         2.94026         0.75154
   H        1.28516         4.47658        -0.61446
   H        1.90065         2.10050        -0.79457
   H        7.22870         5.07384         0.23625
   H        7.13897         6.82028         0.47968
   H        5.70692         5.27379        -1.73471
   H        7.15532         6.26431        -1.93387
   H        5.62191         7.01850        -1.49017
   H        6.33874         6.44306         2.78332
   H        6.41892         4.69810         2.53191
   H        3.92324         6.24717         3.37964
   H        4.92620         5.24228         4.42942
   H        3.99871         4.50448         3.12057
   H        5.53688         8.58361         1.54186
   H        1.51196         9.42363         0.35926
   H        1.15673         7.06137        -0.22719
   H        2.63347        11.31715        -0.32505
   H        1.74300        15.33956        -0.94063
   H        2.70140        12.73290        -2.14428
   H        3.75350        14.15277        -1.99438
   H        1.14811        14.24602        -3.29113
   H        2.58598        14.15157        -4.08867
   H        0.20212        13.76854         0.33917
   H        0.74961        12.46940        -0.73307
   H       -0.52027        14.92150        -1.67693
   H       -1.19255        13.42604        -1.63641
   H        2.35586        16.93701         0.44655
   H        2.53476        17.76447         2.83697
   H        4.73756        17.44705         4.05999
   H        5.18750        15.03158         4.12171
   H        5.18327        12.42797         3.81985
   H        4.86884        10.09929         3.11044
   H        3.28111        19.27996         1.15970
   H        6.01574        18.26905         2.06459
   H        4.05152        21.09014         0.45998
   H        8.99938        21.35543         0.28799
   H        7.89291        19.43125         1.35073
   H        4.11307        25.29926        -0.20077
   H        5.27853        24.73081         0.99402
   H        2.54106        23.46051         0.51072
   H        2.95402        24.56972         1.81299
   H        3.71397        22.98326         1.74801
   H        3.69348        24.03761        -2.26421
   H        3.29174        22.54095        -1.41924
   H        5.56254        22.86353        -3.43454
   H        4.01710        22.06293        -3.73116
   H        5.16332        21.37443        -2.57828
   H        5.47985        25.85096        -2.34028
   H        9.74627        25.59471        -2.34667
   H        9.65495        23.50914        -1.03127
   H        8.71966        29.21586        -5.80427
   H        6.89021        29.04363        -1.06976
   H        5.64832        27.86384        -1.48148
   H        4.72137        30.17644        -1.40559
   H        4.61039        29.53018        -3.04553
   H        5.46606        31.87427        -3.02347
   H        7.58899        32.54138        -0.31376
   H        6.13621        31.53526        -0.11458
   H        6.06653        33.00663        -1.11783
   H        7.59220        31.33349        -4.36758
   H        6.07557        30.62126        -4.93000
*
