# ORCA input file
# SCF done       -192.073452785495          0.000748059180
! CAM-B3LYP def2-SVP def2/J RIJCOSX Grid4 TightSCF
%maxcore 5000
%tddft
    Mode sTDDFT
    Ethresh 5.0
    maxcore 5000
end

%pal
  nprocs 6
  end
* xyz 0 1
   C        1.02193        -1.18368        -1.75246
   C        1.27162        -0.89100        -0.41967
   C        0.64303        -1.59360         0.59798
   C       -0.25008        -2.61548         0.31187
   C       -0.51096        -2.91284        -1.01488
   C        0.12273        -2.19396        -2.05370
   C       -0.35164        -2.70121        -3.33645
   C        0.12076        -2.33748        -4.56980
   C        1.14719        -1.39269        -4.77622
   N        1.97390        -0.63213        -5.01403
   C       -0.31054        -2.87910        -5.79898
   N       -0.59988        -3.27560        -6.83708
   C       -1.41389        -3.65099        -3.04141
   C       -1.35475        -3.93485        -1.61639
   C       -1.78434        -5.08002        -0.99869
   C       -2.25882        -6.21031        -1.69747
   N       -2.57620        -7.17491        -2.23267
   C       -1.72265        -5.29886         0.39067
   N       -1.74071        -5.51340         1.51891
   C       -2.38733        -4.02148        -3.93436
   C       -3.65719        -4.54753        -3.65679
   O       -4.16756        -4.67621        -2.40045
   C       -5.41741        -5.17332        -2.47880
   C       -5.76151        -5.32475        -3.81889
   C       -4.64074        -4.93334        -4.57566
   O       -4.50935        -4.90638        -5.90087
   S       -7.26964        -5.85508        -4.57029
   C       -6.11971        -5.43793        -1.25348
   C       -7.26355        -6.20390        -1.22489
   C       -7.91348        -6.45212        -0.00127
   C       -9.07431        -7.15409         0.29046
   C       -9.98009        -7.90133        -0.62501
   C      -10.53226        -7.02626        -1.76577
   N      -11.81779        -7.55393        -2.17779
   C       -9.27815        -9.16002        -1.17201
   N      -10.25212       -10.02703        -1.81418
   C       -9.25895        -7.06385         1.72136
   C      -10.23778        -7.53489         2.51441
   C      -10.22263        -7.31622         3.98836
   C       -9.02090        -6.57040         4.49515
   C       -8.06422        -6.08792         3.68234
   C       -8.14231        -6.29100         2.28323
   C       -7.33890        -5.91386         1.22883
   C       -6.14721        -5.15221         1.16673
   C       -5.56588        -4.91721        -0.03332
   C      -10.31408        -8.64420         4.68733
   C      -11.00275        -8.86250         5.81274
   C      -11.11421       -10.15532         6.42030
   O      -10.63324       -11.24065         5.76599
   C      -10.95036       -12.34993         6.48389
   C      -11.61356       -11.96368         7.65193
   C      -11.73078       -10.55696         7.59355
   O      -12.33131        -9.81624         8.55048
   S      -12.21419       -12.99353         8.90742
   C      -10.61086       -13.64564         6.06081
   C      -10.13280       -14.01447         4.82951
   C       -9.39162       -15.23917         4.56025
   C       -9.36002       -16.37472         5.32402
   C      -10.10178       -16.57851         6.50714
   N      -10.68068       -16.81479         7.46981
   C       -8.60632       -17.52338         5.00211
   N       -8.01631       -18.48669         4.79937
   C       -8.67592       -15.02679         3.30694
   C       -9.07682       -13.78849         2.75554
   C       -8.53132       -13.33272         1.56736
   C       -7.58198       -14.11766         0.93040
   C       -7.19454       -15.33850         1.46392
   C       -7.73567       -15.80646         2.65264
   C      -10.10447       -13.21909         3.61192
   C      -11.03881       -12.29303         3.22594
   C      -10.96733       -11.53375         2.04585
   N      -10.95557       -10.83936         1.13012
   C      -12.23182       -12.04191         3.93693
   N      -13.24169       -11.85328         4.44914
   H        1.51873        -0.62603        -2.52913
   H        1.96520        -0.10131        -0.17409
   H        0.84981        -1.34338         1.62742
   H       -0.73566        -3.15385         1.10989
   H       -2.23848        -3.81302        -4.98471
   H       -5.32727        -5.21428        -6.31931
   H       -8.07544        -5.10070        -3.82237
   H       -7.64926        -6.65114        -2.12474
   H      -10.84906        -8.24287        -0.05620
   H       -9.79736        -6.98619        -2.58661
   H      -10.68433        -6.00397        -1.39978
   H      -11.69212        -8.52867        -2.44036
   H      -12.17365        -7.04629        -2.98053
   H       -8.75148        -9.64928        -0.33445
   H       -8.52746        -8.87631        -1.91480
   H      -10.88472       -10.38865        -1.10521
   H       -9.78674       -10.81949        -2.24486
   H      -11.06798        -8.10688         2.12316
   H      -11.11938        -6.73396         4.25214
   H       -8.97075        -6.43671         5.56496
   H       -7.22381        -5.54292         4.08694
   H       -5.71369        -4.76286         2.07550
   H       -4.66401        -4.32928        -0.10104
   H       -9.75179        -9.45082         4.24018
   H      -11.54450        -8.05880         6.29424
   H      -12.35341        -8.88861         8.29145
   H      -12.71309       -11.98078         9.61713
   H      -10.68235       -14.39402         6.83771
   H       -8.82285       -12.38214         1.14966
   H       -7.13856       -13.77223         0.00904
   H       -6.45691       -15.93512         0.94961
   H       -7.41934       -16.75584         3.05199
*
