# ORCA input file
# SCF done       -215.636343433125          0.000925998924
! CAM-B3LYP def2-SVP def2/J RIJCOSX Grid4 TightSCF
%maxcore 5000
%tddft
    Mode sTDDFT
    Ethresh 5.0
    maxcore 5000
end

%pal
  nprocs 6
  end
* xyz 0 1
   C        4.32527        -0.23286         2.53884
   C        3.98729        -0.49095         1.23242
   C        4.92259        -0.78842         0.22369
   N        5.64616        -1.00843        -0.64076
   C        2.65393        -0.58548         0.78687
   N        1.57755        -0.72540         0.41077
   C        5.63949        -0.46259         3.12938
   C        5.48232        -0.58874         4.54103
   C        6.53808        -0.87484         5.35663
   C        7.82287        -1.03849         4.78975
   C        7.99002        -0.88944         3.38290
   C        6.87588        -0.60045         2.56062
   C        9.27732        -1.04833         2.83179
   C       10.34855        -1.34812         3.62889
   C       10.18229        -1.49960         5.01326
   C        8.94640        -1.34699         5.58125
   C        4.06876        -0.36332         4.89475
   O        3.55374        -0.41984         5.98959
   C        3.40250         0.01799         3.61990
   C        2.14779         0.55333         3.65486
   C        1.46732         1.33059         2.68286
   C        0.09044         1.41743         2.68327
   C       -0.66575         2.08738         1.73087
   C       -0.02197         2.72895         0.57626
   C        1.31380         2.86162         0.42968
   S        2.45671         2.24491         1.54614
   C       -1.08519         3.14002        -0.27314
   C       -2.30827         2.79194         0.30475
   C       -3.40632         3.17173        -0.49915
   C       -2.99691         3.78154        -1.64117
   S       -1.27503         3.92425        -1.78698
   C       -2.06877         2.16814         1.57609
   C       -3.10770         1.76450         2.44484
   C       -3.01702         1.54932         3.78462
   C       -4.10472         1.12873         4.58467
   S       -5.64247         0.72213         3.89317
   C       -6.31624         0.33824         5.45635
   C       -5.37697         0.55509         6.46256
   C       -4.13636         0.97365         5.96859
   C       -2.94531         1.23493         6.84171
   C       -3.12972         0.64729         8.24318
   C       -2.85354        -0.85279         8.22976
   F       -3.50495        -1.53620         7.27979
   F       -1.54743        -1.09652         8.02920
   F       -3.17280        -1.43437         9.39806
   C       -4.52248         0.97606         8.78127
   C       -5.63093         0.36386         7.92530
   C       -7.64510        -0.14806         5.45172
   C       -8.37237        -0.62722         6.49388
   C       -9.69614        -1.14792         6.40057
   C      -10.40432        -1.34921         5.23503
   C      -11.68669        -1.87991         5.16382
   C      -12.42297        -2.27262         6.36608
   C      -11.93139        -2.17022         7.62169
   S      -10.37077        -1.55825         7.97191
   C      -13.67153        -2.76621         5.90036
   C      -13.72545        -2.70767         4.50587
   C      -14.95939        -3.19163         4.01307
   C      -15.77902        -3.59304         5.01971
   S      -15.10311        -3.40614         6.60109
   C      -12.48069        -2.15369         4.02187
   C      -12.08437        -1.93109         2.69504
   C      -12.81100        -2.26531         1.58261
   C      -12.34729        -2.03042         0.28364
   C      -13.03062        -2.38519        -0.85840
   C      -12.60115        -2.18010        -2.22078
   C      -11.46927        -1.52453        -2.64695
   C      -11.12020        -1.34839        -4.00019
   N      -10.77422        -1.16452        -5.08055
   C      -10.50485        -0.92163        -1.81698
   N       -9.67302        -0.40110        -1.21749
   C      -13.60098        -2.78253        -3.10039
   C      -14.64411        -3.32019        -2.29492
   C      -14.33534        -3.07912        -0.87326
   O      -15.03173        -3.39782         0.07387
   C      -15.72398        -3.95272        -2.83675
   C      -15.81336        -4.08259        -4.24135
   C      -14.77383        -3.54980        -5.05536
   C      -13.66652        -2.89773        -4.46281
   C      -14.87168        -3.68626        -6.45465
   C      -15.94394        -4.31783        -7.02418
   C      -16.96698        -4.84225        -6.22108
   C      -16.90265        -4.72694        -4.85882
   H        6.39604        -0.98084         6.42197
   H        7.02929        -0.48970         1.49838
   H        9.39942        -0.93490         1.76450
   H       11.33007        -1.47193         3.19610
   H       11.03775        -1.73812         5.62757
   H        8.81220        -1.46241         6.64701
   H        1.62223         0.40671         4.59436
   H       -0.42103         0.82904         3.43216
   H        1.76009         3.37339        -0.40820
   H       -4.43875         3.00011        -0.25531
   H       -3.60687         4.16846        -2.43380
   H       -4.08555         1.66879         1.98718
   H       -2.09028         1.74544         4.30231
   H       -2.79211         2.31464         6.93318
   H       -2.04626         0.81345         6.38503
   H       -2.37168         1.06422         8.91581
   H       -4.62311         2.06311         8.78578
   H       -4.61925         0.62317         9.80919
   H       -6.57942         0.83228         8.19723
   H       -5.71591        -0.70662         8.13561
   H       -8.09585        -0.14517         4.46804
   H       -7.95201        -0.64306         7.48646
   H       -9.91318        -1.08608         4.31005
   H      -12.48955        -2.47422         8.49283
   H      -15.25090        -3.25056         2.98086
   H      -16.76775        -3.99959         4.93456
   H      -11.11611        -1.46838         2.54333
   H      -13.76927        -2.74143         1.69034
   H      -11.38286        -1.54891         0.18250
   H      -16.50125        -4.35183        -2.20177
   H      -12.89578        -2.50812        -5.10861
   H      -14.08130        -3.28084        -7.06946
   H      -16.00932        -4.41680        -8.09755
   H      -17.80602        -5.33809        -6.68642
   H      -17.68731        -5.12913        -4.23431
*
