# ORCA input file
# SCF done       -112.072181625792          0.000896410310
! CAM-B3LYP def2-SVP def2/J RIJCOSX Grid4 TightSCF
%maxcore 5000
%tddft
    Mode sTDDFT
    Ethresh 5.0
    maxcore 5000
end

%pal
  nprocs 6
  end
* xyz 0 1
   C       -1.16302        -2.22957        -0.40752
   C       -0.80522        -3.41034        -1.00143
   C       -1.70812        -4.31083        -1.60219
   N       -2.37177        -5.04947        -2.17796
   C        0.53064        -3.82349        -1.19158
   N        1.59500        -4.22062        -1.35517
   C       -0.25074        -1.14008        -0.05733
   C       -1.00225         0.02252         0.20324
   C       -0.38259         1.21831         0.51158
   C        1.00203         1.24881         0.56659
   C        1.76212         0.10641         0.32591
   C        1.12992        -1.09692         0.01112
   C        3.25374         0.14941         0.41908
   C       -2.43784        -0.28555         0.10853
   O       -3.38157         0.45879         0.25285
   C       -2.50428        -1.75120        -0.15421
   C       -3.68725        -2.40162         0.02845
   C       -3.91428        -3.75522         0.08101
   C       -4.18497        -4.94660         0.18972
   C       -4.43161        -6.24796         0.26450
   C       -4.65584        -7.45706         0.31974
   C       -4.88883        -8.75763         0.35783
   C       -5.09990        -9.97214         0.37886
   C       -5.31866       -11.27463         0.38287
   C       -5.51490       -12.49191         0.37239
   C       -5.72115       -13.79696         0.34312
   C       -5.90571       -15.01395         0.30406
   C       -6.10418       -16.32342         0.23927
   C       -6.25276       -17.54008         0.19228
   C       -6.49041       -18.88911         0.06134
   C       -5.77509       -19.83666         0.73221
   C       -5.89608       -21.27827         0.68448
   C       -6.80652       -22.00519        -0.03611
   C       -7.80001       -21.44677        -0.86740
   N       -8.62705       -21.04860        -1.55714
   C       -6.87668       -23.41427        -0.04130
   N       -6.98869       -24.55566        -0.08924
   C       -4.86086       -21.82546         1.56047
   C       -4.13723       -20.76580         2.14151
   C       -4.67052       -19.47996         1.66228
   O       -4.30297       -18.36179         1.94856
   C       -3.09551       -21.00760         3.01541
   C       -2.77235       -22.32349         3.31012
   C       -3.47383       -23.38501         2.74446
   C       -4.52663       -23.13314         1.86348
   C       -3.12072       -24.80099         3.06998
   H       -0.97366         2.10128         0.70013
   H        1.50523         2.17506         0.80243
   H        1.72825        -1.97607        -0.16797
   H        3.62363         1.16775         0.33318
   H        3.70547        -0.46225        -0.35865
   H        3.57395        -0.24969         1.38204
   H       -4.54787        -1.76220         0.21500
   H       -7.28357       -19.16702        -0.62262
   H       -2.55258       -20.18279         3.45071
   H       -1.95992       -22.53221         3.99069
   H       -5.06064       -23.96503         1.43263
   H       -2.23552       -24.85258         3.69795
   H       -2.93924       -25.36500         2.15654
   H       -3.94745       -25.28138         3.59228
*
