# ORCA input file
# SCF done       -138.848182274366          0.000830722432
! CAM-B3LYP def2-SVP def2/J RIJCOSX Grid4 TightSCF
%maxcore 5000
%tddft
    Mode sTDDFT
    Ethresh 5.0
    maxcore 5000
end

%pal
  nprocs 6
  end
* xyz 0 1
   C        3.36076         2.39543        -8.10874
   C        2.87658         3.32848        -8.97176
   S        3.47040         3.06646       -10.57143
   C        4.39224         1.66778       -10.06895
  Cl        5.32979         0.78632       -11.17090
   C        4.22980         1.44484        -8.73494
   C        4.69526         0.46472        -7.74610
   O        5.37729        -0.51453        -7.94192
   C        4.05907         0.89079        -6.46253
   C        3.25438         2.07752        -6.69848
   C        2.56471         2.82571        -5.78066
   C        1.84071         3.97266        -6.16781
   N        1.24620         4.90673        -6.46872
   C        2.50987         2.57995        -4.39436
   N        2.43933         2.44759        -3.25602
   C        4.10367         0.17240        -5.30290
   C        4.97804        -0.90220        -4.99904
   C        4.68871        -1.92954        -4.12170
   C        5.77859        -2.84718        -4.10612
   C        6.81762        -2.26245        -4.96499
   C        6.33304        -1.10700        -5.49322
   C        8.13212        -2.72115        -5.12464
   N        9.23169        -3.03206        -5.23922
   C        5.85178        -4.06091        -3.45404
   C        6.87134        -5.03374        -3.58330
   C        6.60217        -6.10121        -2.74185
   C        5.35700        -5.80501        -2.04480
   C        4.88813        -4.60638        -2.48086
   C        3.69950        -4.00724        -2.04945
   N        2.71608        -3.54577        -1.67595
   C        7.43288        -7.24570        -2.66641
   N        7.47234        -8.21152        -1.69029
   C        6.73774        -8.25826        -0.44792
   C        7.13785        -7.13390         0.50217
   C        8.47466        -9.17628        -1.94344
   O        8.70595       -10.11165        -1.20828
   C        9.05338        -8.76319        -3.20066
   C        8.40594        -7.58651        -3.61770
   C        8.94059        -7.23279        -4.91684
   O        8.66574        -6.35984        -5.70805
   N        9.92896        -8.21456        -5.17233
   C       10.69629        -8.12202        -6.39097
   C       12.01133        -7.37572        -6.17424
   C       10.01310        -9.13005        -4.15439
   C       10.85148       -10.25949        -4.00324
   C       11.90568       -10.65481        -4.76848
   C       12.63598       -11.79575        -4.49989
   C       13.31861       -12.79375        -4.31261
   C       14.06425       -13.87967        -4.11226
   C       14.76156       -14.87550        -3.95078
   C       15.52412       -15.95407        -3.77951
   C       16.23051       -16.94163        -3.63299
   C       17.00822       -18.02766        -3.47658
   C       17.71075       -19.00195        -3.34093
   H        2.21035         4.14741        -8.78640
   H        3.38300         0.40825        -4.52815
   H        3.76173        -2.06565        -3.59812
   H        6.87364        -0.42588        -6.12036
   H        7.70906        -4.95240        -4.24589
   H        4.85855        -6.43762        -1.33607
   H        6.98934        -9.22481        -0.00026
   H        5.66350        -8.24540        -0.64902
   H        8.19952        -7.19848         0.72821
   H        6.57963        -7.22315         1.42998
   H        6.93573        -6.15764         0.06686
   H       10.07785        -7.55079        -7.09044
   H       10.85254        -9.12146        -6.80368
   H       11.80175        -6.35197        -5.87446
   H       12.58109        -7.35512        -7.09930
   H       12.61356        -7.84408        -5.39809
   H       10.60241       -10.85583        -3.13362
   H       12.24297       -10.08790        -5.62478
   H       18.31894       -19.84686        -3.21617
*
