# ORCA input file
# SCF done       -196.442059577412          0.000470736990
! CAM-B3LYP def2-SVP def2/J RIJCOSX Grid4 TightSCF
%maxcore 5000
%tddft
    Mode sTDDFT
    Ethresh 5.0
    maxcore 5000
end

%pal
  nprocs 6
  end
* xyz 0 1
   C        3.54838         1.55196        -5.98278
   C        3.32590         2.56414        -6.86493
   S        4.42443         2.48692        -8.19355
   C        5.20153         1.05895        -7.55128
  Cl        6.49319         0.31882        -8.35931
   C        4.62283         0.68996        -6.37362
   C        4.80557        -0.37293        -5.38005
   O        5.60030        -1.28339        -5.41776
   C        3.74267        -0.11922        -4.35369
   C        3.00061         1.08168        -4.72845
   C        2.00242         1.70937        -4.03240
   C        1.39320         2.88290        -4.52618
   N        0.88533         3.83535        -4.91463
   C        1.47859         1.30653        -2.78788
   N        1.01078         1.03934        -1.77376
   C        3.39675        -0.95334        -3.34111
   C        4.09639        -2.12255        -2.86999
   C        3.34974        -3.18404        -2.36000
   C        3.95899        -4.35714        -1.94608
   N        3.07469        -5.39635        -1.49798
   O        2.03676        -5.04143        -0.96989
   O        3.38347        -6.55546        -1.67466
   C        5.36260        -4.50843        -1.96335
   C        6.09516        -3.38676        -2.38595
   C        5.49438        -2.23858        -2.83983
   C        6.01746        -5.69782        -1.47703
   C        7.29834        -6.02246        -1.72614
   C        7.98325        -7.20500        -1.23612
   C        8.95330        -7.76281        -2.07673
   C        9.64621        -8.91061        -1.74102
   C       10.65295        -9.51582        -2.68296
   N       11.74241       -10.13416        -1.94323
   C        9.39292        -9.50419        -0.51003
   C        8.47317        -8.93972         0.35208
   C        7.75679        -7.79763         0.01661
   C        6.79120        -7.24443         1.03281
   N        5.45658        -7.74893         0.77117
   C        4.36206        -7.20907         1.40350
   C        3.20424        -7.84449         1.58303
   C        2.01664        -7.21905         2.23570
   C        2.01424        -7.47979         3.74735
   O        2.95289        -7.41834         4.48550
   O        0.77790        -7.79320         4.15719
   C       -0.16885        -7.70023         3.09562
   C        0.66510        -7.79462         1.80936
   C        0.00710        -7.14458         0.60289
   C       -0.41922        -5.71248         0.88375
   C       -1.40009        -5.59950         2.04420
   C       -0.99433        -6.40684         3.29795
   O       -2.21838        -6.76594         3.93287
   C       -3.25880        -6.70336         3.10612
   O       -4.35510        -7.08353         3.40090
   C       -2.85292        -6.05575         1.78012
   C       -3.10778        -6.91270         0.58415
   C       -3.74052        -8.09448         0.58490
   C       -4.07241        -8.77975        -0.62268
   C       -4.57603       -10.03395        -0.73444
   C       -5.28173       -10.44909        -1.98785
   O       -5.24056        -9.89035        -3.05654
   C       -6.05718       -11.63132        -1.58825
   C       -6.97995       -12.46137        -2.15058
   S       -7.47731       -13.68931        -1.00928
   C       -6.42339       -13.07367         0.21099
   C       -5.74085       -11.98577        -0.23417
   C       -4.71964       -11.08315         0.25940
   C       -3.91266       -11.31980         1.33969
   C       -4.13841       -12.41557         2.19940
   N       -4.32383       -13.30243         2.90249
   C       -2.73415       -10.59880         1.60689
   N       -1.72952       -10.07859         1.80257
  Cl       -7.62072       -12.40464        -3.71755
   H        2.59456         3.34704        -6.83311
   H        2.45864        -0.76191        -2.83360
   H        2.27149        -3.12197        -2.32163
   H        7.17163        -3.42591        -2.34303
   H        6.10613        -1.40623        -3.14425
   H        5.41271        -6.40025        -0.92328
   H        7.88342        -5.42126        -2.41145
   H        9.14163        -7.29122        -3.03178
   H       10.98572        -8.74599        -3.40081
   H       10.15921       -10.30865        -3.25796
   H       12.25002        -9.43224        -1.41421
   H       12.39388       -10.57973        -2.57914
   H        9.93643       -10.39459        -0.23732
   H        8.30637        -9.39528         1.31801
   H        6.76029        -6.15180         0.98261
   H        7.13338        -7.52904         2.04003
   H        5.41324        -8.75023         0.63927
   H        4.48229        -6.17511         1.70082
   H        3.10729        -8.88221         1.29982
   H        2.05339        -6.13224         2.10737
   H       -0.85127        -8.55033         3.19076
   H        0.80143        -8.85881         1.59191
   H       -0.85703        -7.74942         0.32252
   H        0.71316        -7.14858        -0.22718
   H       -0.86156        -5.27399        -0.01084
   H        0.46341        -5.11355         1.10978
   H       -1.44289        -4.54688         2.34470
   H       -0.44594        -5.78013         4.01002
   H       -3.49323        -5.17364         1.64458
   H       -2.79554        -6.48125        -0.35883
   H       -4.07038        -8.52980         1.51660
   H       -4.01118        -8.21333        -1.54594
   H       -6.39090       -13.54983         1.17090
*
