# ORCA input file
# SCF done       -173.443118079906          0.000405190436
! CAM-B3LYP def2-SVP def2/J RIJCOSX Grid4 TightSCF
%maxcore 5000
%tddft
    Mode sTDDFT
    Ethresh 5.0
    maxcore 5000
end

%pal
  nprocs 6
  end
* xyz 0 1
   C       -0.36054        -0.41723         1.91070
   C        0.37806         0.71690         1.75626
   C        0.24434         1.97500         2.54405
   F       -0.69024         1.86405         3.49617
   F        1.38646         2.32139         3.16029
   F       -0.10385         3.02565         1.78174
   S        1.55915         0.60124         0.50349
   C        1.04788        -1.01937         0.17855
   C        1.65160        -1.77836        -0.82611
   N        2.12933        -2.42450        -1.64581
   C        0.01113        -1.44140         1.00434
   C       -0.55978        -2.75723         0.90100
   C       -1.58046        -3.21276         1.64783
   C       -2.17045        -4.52968         1.56572
   C       -3.27422        -4.82230         2.36820
   C       -3.87980        -6.06503         2.32607
   N       -5.08054        -6.24239         3.10473
   O       -5.22394        -5.52766         4.07296
   O       -5.88638        -7.06307         2.72173
   C       -3.39735        -7.09490         1.49894
   C       -2.29531        -6.78339         0.69086
   C       -1.70241        -5.54290         0.71545
   C       -3.95078        -8.42677         1.53128
   C       -4.04059        -9.23433         0.45299
   C       -4.59137       -10.54388         0.53974
   N       -4.83403       -11.34946        -0.54849
   C       -4.51025       -11.06467        -1.92492
   C       -3.02910       -11.29284        -2.21786
   C       -5.43391       -12.56564        -0.17914
   O       -5.74124       -13.43039        -0.97722
   C       -5.56005       -12.48083         1.25777
   C       -5.02163       -11.23330         1.66761
   C       -5.13120       -11.15283         3.10716
   O       -4.77231       -10.31063         3.90542
   N       -5.75560       -12.35677         3.47511
   C       -6.10441       -12.62230         4.84994
   C       -7.57688       -12.33092         5.12907
   C       -6.02387       -13.15351         2.38592
   C       -6.66613       -14.41510         2.47334
   C       -6.93000       -15.17201         1.37823
   C       -7.60501       -16.42168         1.40770
   S       -7.92192       -17.25285        -0.08059
   C       -8.73561       -18.53246         0.74836
   C       -9.35825       -19.62221         0.03990
   O       -9.97733       -20.52038         0.56290
   C       -8.74132       -18.31635         2.12447
   C       -8.10993       -17.12742         2.48906
   C       -9.41601       -19.22890         3.04969
   C      -10.58280       -18.87968         3.68213
   C      -11.25971       -17.55916         3.58144
   F      -11.36955       -17.12533         2.31443
   F      -12.49149       -17.56849         4.09813
   F      -10.58292       -16.58822         4.23705
   S      -11.26186       -20.14542         4.62980
   C       -9.94992       -21.17862         4.17567
   C       -9.87726       -22.48722         4.66168
   N       -9.80726       -23.56050         5.06110
   C       -9.03165       -20.56804         3.33890
   C       -7.85013       -21.25958         2.86212
   C       -6.73825       -20.67926         2.42656
   H       -1.13576        -0.51000         2.64864
   H       -0.10249        -3.38565         0.14948
   H       -2.02992        -2.56211         2.38536
   H       -3.69030        -4.07299         3.02635
   H       -1.88546        -7.55489         0.05735
   H       -0.85421        -5.35810         0.07562
   H       -4.31781        -8.78783         2.48366
   H       -3.74902        -8.87477        -0.52391
   H       -4.80351       -10.03915        -2.16627
   H       -5.11149       -11.75291        -2.52560
   H       -2.40412       -10.65885        -1.59257
   H       -2.82116       -11.07123        -3.26094
   H       -2.76902       -12.33055        -2.02458
   H       -5.48025       -11.95603         5.45218
   H       -5.85465       -13.65772         5.09846
   H       -7.79304       -11.28716         4.91564
   H       -7.79794       -12.52442         6.17503
   H       -8.22462       -12.95125         4.51347
   H       -6.95907       -14.75995         3.45364
   H       -6.63210       -14.81245         0.40204
   H       -9.23174       -19.56785        -1.05698
   H       -8.02646       -16.79532         3.50788
   H       -7.91362       -22.33864         2.91255
   H       -6.61243       -19.61060         2.39757
   H       -5.90041       -21.26802         2.09676
*
