# ORCA input file
# SCF done       -199.143483650727          0.000556901982
! CAM-B3LYP def2-SVP def2/J RIJCOSX Grid4 TightSCF
%maxcore 5000
%tddft
    Mode sTDDFT
    Ethresh 5.0
    maxcore 5000
end

%pal
  nprocs 6
  end
* xyz 0 1
   C        0.11308        -0.70750        -0.54655
   S        1.23204         0.32369        -1.32023
   C        1.30311         1.37256         0.06392
   C        0.48465         0.91344         1.06958
   C       -0.20460        -0.27470         0.70662
   C       -1.25264        -0.92371         1.56603
   N       -2.52113        -0.80802         0.77283
   O       -3.27139         0.09563         1.03601
   O       -2.67539        -1.61901        -0.10527
   C       -1.40622        -0.27276         2.93666
   C       -1.15686         1.23477         2.90429
   C        0.25332         1.53287         2.40696
   N        1.25446         0.99392         3.39930
   O        0.92146         0.94557         4.55301
   O        2.32779         0.66027         2.96230
   C        2.09904         2.58333        -0.01666
   C        2.78489         3.10051         1.07485
   C        3.51307         4.27796         0.97512
   N        4.12467         4.71759         2.20464
   O        3.54389         4.42430         3.22905
   O        5.16352         5.34325         2.16216
   C        3.59055         5.00083        -0.23284
   C        2.91234         4.44280        -1.32912
   C        2.19541         3.27569        -1.23145
   C        4.31346         6.24498        -0.35126
   C        4.08124         7.15807        -1.32055
   C        4.71411         8.41151        -1.54853
   N        5.73377         9.04437        -0.87597
   C        6.51407         8.57482         0.24548
   C        7.55497         7.54101        -0.17589
   C        6.04389        10.28970        -1.46129
   O        6.91680        11.02560        -1.04392
   C        5.12267        10.41873        -2.56707
   C        4.32721         9.25128        -2.58946
   C        3.40046         9.35170        -3.69624
   O        2.54510         8.59626        -4.10845
   N        3.70336        10.59551        -4.28102
   C        2.94978        11.10205        -5.40352
   C        1.90250        12.12350        -4.96880
   C        4.72125        11.24202        -3.61989
   C        5.23181        12.50254        -4.01365
   C        6.23575        13.11983        -3.33720
   C        6.78314        14.36857        -3.71906
   C        6.50990        15.23073        -4.76209
   C        5.58283        15.31095        -5.89987
   O        4.71625        14.55247        -6.26943
   N        5.89532        16.50372        -6.53622
   C        5.20450        16.97090        -7.71239
   C        6.93207        17.20517        -5.93567
   O        7.36466        18.26187        -6.33228
   C        7.32920        16.38499        -4.78716
   C        8.26160        16.45914        -3.77309
   S        8.08567        15.03878        -2.75940
   C        9.22251        17.48180        -3.53261
   S        9.28174        18.87078        -4.58556
   C       10.55235        19.55046        -3.67831
   C       10.92604        18.77129        -2.61888
   C       10.18197        17.57457        -2.53449
   C       10.41957        16.59810        -1.43585
   N        9.36744        16.76943        -0.36601
   O        9.55013        16.18037         0.66590
   O        8.42168        17.46999        -0.62075
   C       11.79816        16.76651        -0.80209
   C       12.06586        18.22576        -0.44236
   C       12.02909        19.13172        -1.66650
   N       13.30275        19.04973        -2.45617
   O       14.02533        18.10420        -2.27529
   O       13.49379        19.94165        -3.24338
   H       -0.27442        -1.56600        -1.05891
   H       -1.05990        -1.99832         1.64848
   H       -0.71127        -0.74645         3.63178
   H       -2.41604        -0.45642         3.30674
   H       -1.28239         1.63960         3.90844
   H       -1.87861         1.71688         2.24453
   H        0.44030         2.61297         2.37601
   H        2.82265         2.56279         2.00821
   H        2.96992         4.93900        -2.28420
   H        1.68999         2.88490        -2.10191
   H        5.05738         6.42835         0.40425
   H        3.29725         6.98010        -2.04618
   H        5.85424         8.18124         1.02123
   H        7.02267         9.45897         0.64151
   H        7.09033         6.69490        -0.67647
   H        8.08201         7.17847         0.70162
   H        8.27346         7.99344        -0.85518
   H        2.45612        10.23459        -5.85040
   H        3.63068        11.54266        -6.13578
   H        1.22297        11.67895        -4.24542
   H        1.33009        12.44791        -5.83284
   H        2.37432        12.99387        -4.51955
   H        4.80579        12.97441        -4.88662
   H        6.66353        12.65487        -2.45803
   H        5.28476        16.23144        -8.50983
   H        5.66892        17.90590        -8.01985
   H        4.14966        17.13393        -7.48764
   H       10.98119        20.49068        -3.96518
   H       10.30605        15.56486        -1.78186
   H       12.55970        16.41357        -1.49745
   H       11.84643        16.15277         0.09832
   H       13.04365        18.30266         0.03532
   H       11.31584        18.57736         0.26893
   H       11.93713        20.18522        -1.38286
*
