# ORCA input file
# SCF done       -217.887661595866          0.000413332786
! CAM-B3LYP def2-SVP def2/J RIJCOSX Grid4 TightSCF
%maxcore 5000
%tddft
    Mode sTDDFT
    Ethresh 5.0
    maxcore 5000
end

%pal
  nprocs 6
  end
* xyz 0 1
   C       -3.33592         2.86771         2.73759
   C       -3.29306         3.57388         3.90681
   F       -3.12196         4.90183         3.88527
   C       -3.42795         2.91764         5.14721
   F       -3.38316         3.63615         6.27664
   C       -3.60337         1.56328         5.20098
   C       -3.65202         0.80775         4.01332
   C       -3.51546         1.46973         2.75841
   C       -3.55801         0.73232         1.55317
   C       -3.73066        -0.62649         1.60138
   C       -3.87223        -1.27609         2.85769
   C       -3.83559        -0.59226         4.03862
   C       -4.05732        -2.72461         2.65013
   O       -4.22548        -3.54892         3.52234
   C       -4.05494        -2.92196         1.17915
   C       -3.80055        -1.63607         0.54951
   C       -3.58138        -1.39978        -0.78287
   C       -3.54603        -2.37549        -1.80199
   N       -3.47908        -3.10658        -2.68537
   C       -3.32070        -0.12243        -1.32414
   N       -3.11134         0.88677        -1.82917
   C       -4.36969        -4.06080         0.48806
   C       -4.54025        -5.38781         0.92923
   C       -4.24848        -6.02193         2.13203
   C       -4.53147        -7.37914         2.08851
   C       -5.05392        -7.80050         0.84405
   S       -5.17153        -6.52649        -0.27126
   C       -5.32008        -9.19024         0.91068
   C       -4.95958        -9.64957         2.19475
   C       -4.44690        -8.53270         2.97143
   C       -3.96917        -8.57115         4.24748
   C       -3.94421        -9.76605         4.99976
   N       -3.92149       -10.73102         5.61828
   C       -3.44347        -7.43922         4.90894
   N       -2.99316        -6.54527         5.46694
   C       -5.17343       -11.01631         2.35502
   C       -5.69265       -11.58244         1.20556
   S       -5.92521       -10.43364        -0.09114
   C       -6.03170       -12.94827         0.97421
   N       -6.53607       -13.25901        -0.21105
   N       -6.86906       -14.46469        -0.54422
   C       -6.72861       -15.50437         0.26532
   C       -6.20019       -15.30744         1.57324
   C       -5.84204       -13.97276         1.94522
   N       -5.36692       -13.91064         3.18577
   S       -5.37281       -15.38783         3.81849
   N       -5.97473       -16.17658         2.55424
   C       -7.11939       -16.78224        -0.23249
   C       -7.01409       -18.00952         0.39552
   C       -7.49281       -19.03566        -0.41479
   C       -7.96738       -18.57015        -1.65855
   S       -7.81545       -16.87926        -1.83321
   C       -8.44238       -19.68356        -2.39554
   C       -8.25365       -20.85103        -1.62906
   C       -7.65125       -20.47947        -0.35831
   C       -7.30384       -21.30863         0.66662
   C       -7.48930       -22.70633         0.59858
   N       -7.62777       -23.84288         0.54481
   C       -6.72454       -20.82665         1.86039
   N       -6.25000       -20.44284         2.83064
   C       -8.68211       -22.00049        -2.28317
   C       -9.24076       -21.72257        -3.52188
   S       -9.16920       -20.00214        -3.89965
   C       -9.73426       -22.68360        -4.43538
   C      -10.58023       -22.52538        -5.48856
   C      -10.59736       -23.54883        -6.57295
   O      -10.09795       -24.64802        -6.53664
   C      -11.29264       -22.89940        -7.70275
   C      -11.47568       -23.35872        -8.97525
   C      -12.16303       -22.54755        -9.90584
   C      -12.64143       -21.26738        -9.50016
   C      -13.32062       -20.46137       -10.43580
   C      -13.51997       -20.90685       -11.71232
   C      -13.04859       -22.17398       -12.11189
   C      -12.38398       -22.97795       -11.22873
   F      -13.25760       -22.58405       -13.36936
   F      -14.16727       -20.14086       -12.59906
   C      -12.44235       -20.82038        -8.17399
   C      -11.78488       -21.62907        -7.28636
   C      -11.48403       -21.45979        -5.86764
   C      -12.16441       -20.63488        -5.01086
   C      -12.05345       -20.71548        -3.60750
   N      -12.01519       -20.78469        -2.46232
   C      -13.11805       -19.68533        -5.43086
   N      -13.88930       -18.88890        -5.72691
   H       -3.22952         3.38561         1.79716
   H       -3.70476         1.07532         6.15769
   H       -3.45658         1.26488         0.62166
   H       -3.94320        -1.11477         4.97694
   H       -4.52604        -3.94579        -0.57838
   H       -3.85865        -5.49639         2.98464
   H       -4.97261       -11.59168         3.24059
   H       -6.60906       -18.11764         1.38544
   H       -8.63243       -22.99717        -1.88320
   H       -9.32268       -23.68283        -4.32233
   H      -11.10357       -24.32875        -9.26767
   H      -13.69170       -19.49096       -10.14526
   H      -12.02967       -23.94482       -11.55016
   H      -12.80713       -19.84493        -7.89383
*
