# ORCA input file
# SCF done       -197.214332534999          0.000585061273
! CAM-B3LYP def2-SVP def2/J RIJCOSX Grid4 TightSCF
%maxcore 5000
%tddft
    Mode sTDDFT
    Ethresh 5.0
    maxcore 5000
end

%pal
  nprocs 6
  end
* xyz 0 1
   C      -14.86941        -4.08240        -1.76730
   C      -15.78416        -4.78460        -2.50055
   F      -16.94490        -4.21531        -2.85344
   C      -15.52083        -6.11157        -2.89442
   F      -16.43593        -6.77669        -3.61360
   C      -14.34618        -6.71862        -2.54835
   C      -13.38373        -6.02196        -1.79230
   C      -13.64776        -4.67910        -1.39592
   C      -12.69480        -3.95883        -0.63974
   C      -11.51416        -4.56219        -0.29518
   C      -11.26149        -5.90539        -0.68868
   C      -12.16422        -6.62729        -1.41368
   C       -9.94691        -6.33530        -0.16522
   O       -9.49840        -7.45920        -0.19274
   C       -9.39418        -5.14589         0.53174
   C      -10.36106        -4.07446         0.45700
   C      -10.20190        -2.79604         0.93027
   C       -9.05197        -2.31257         1.58814
   N       -8.14817        -1.84122         2.11731
   C      -11.17088        -1.77973         0.80301
   N      -11.91963        -0.91165         0.73800
   C       -8.24286        -5.14843         1.27508
   C       -7.20184        -6.08421         1.16013
   C       -6.78533        -6.82111         0.05273
   C       -5.67225        -7.66224         0.32597
   S       -5.23321        -8.51598        -1.10267
   C       -6.53444        -7.63678        -1.95018
   N       -7.20873        -6.81713        -1.23392
   C       -6.77197        -7.88132        -3.38633
   C       -5.19861        -7.57669         1.63160
   S       -6.14510        -6.40031         2.51594
   C       -4.14518        -8.25506         2.28877
   C       -3.30873        -9.22765         1.67825
   C       -2.26468        -9.87762         2.41399
   N       -1.48240       -10.77920         1.80064
   C       -1.68645       -11.07150         0.54559
   C       -2.71381       -10.43575        -0.17405
   N       -3.48632        -9.54533         0.38685
   C       -2.01684        -9.63980         3.79115
   C       -2.80905        -8.63545         4.38772
   C       -3.85052        -7.96884         3.64194
   N       -4.47470        -7.05231         4.37941
   S       -3.81225        -7.01633         5.84438
   N       -2.71334        -8.15459         5.62523
   C       -1.05045       -10.41834         4.46800
   C       -0.81707       -10.56596         5.83646
   C        0.23993       -11.47217         6.12085
   S        0.44683       -11.63426         7.82193
   C       -0.91154       -10.48019         8.02036
   N       -1.42219       -10.05135         6.93444
   C       -1.35479       -10.10254         9.37577
   C        0.83079       -12.04668         5.00615
   S        0.02911       -11.43315         3.56088
   C        1.94328       -12.90046         5.00436
   C        2.51581       -13.57355         3.95938
   C        3.94616       -13.96075         4.04037
   O        4.63619       -14.01136         5.03269
   C        4.35681       -14.19850         2.63836
   C        5.59908       -14.46781         2.14283
   C        5.76270       -14.62792         0.74791
   C        4.63035       -14.50405        -0.10848
   C        4.80332       -14.65844        -1.49848
   C        6.04054       -14.92567        -2.01385
   C        7.15894       -15.04973        -1.16609
   C        7.02416       -14.90449         0.18629
   F        8.36071       -15.31122        -1.69890
   F        6.20137       -15.07188        -3.33633
   C        3.35286       -14.23517         0.43509
   C        3.21852       -14.08721         1.78889
   C        2.04398       -13.85788         2.62616
   C        0.74678       -14.12548         2.26654
   C       -0.29215       -14.26560         3.21029
   N       -1.13838       -14.46676         3.95939
   C        0.32554       -14.33666         0.94267
   N       -0.07514       -14.44715        -0.12865
   H      -15.08628        -3.06692        -1.47474
   H      -14.16059        -7.73572        -2.85613
   H      -12.92741        -2.94751        -0.34802
   H      -11.94961        -7.64645        -1.69698
   H       -8.10934        -4.39403         2.04063
   H       -5.84727        -7.76446        -3.94897
   H       -7.52134        -7.18722        -3.75632
   H       -7.12610        -8.90138        -3.53204
   H       -1.04301       -11.81532         0.09819
   H       -2.90688       -10.65569        -1.21395
   H       -0.53046        -9.65842         9.93226
   H       -1.68943       -10.98378         9.92198
   H       -2.17046        -9.38903         9.30034
   H        2.49263       -12.95211         5.94092
   H        6.44692       -14.55774         2.80467
   H        3.95726       -14.56997        -2.16196
   H        7.89018       -15.00229         0.82201
   H        2.51157       -14.14388        -0.23367
*
