# ORCA input file
# SCF done       -205.469423876268          0.000858622171
! CAM-B3LYP def2-SVP def2/J RIJCOSX Grid4 TightSCF
%maxcore 5000
%tddft
    Mode sTDDFT
    Ethresh 5.0
    maxcore 5000
end

%pal
  nprocs 6
  end
* xyz 0 1
   C        1.55995         4.19986        -4.52959
   C        2.09318         5.41367        -4.18400
   C        2.64613         6.31893        -5.11256
   N        3.09399         7.09458        -5.82985
   C        2.23217         5.84617        -2.84948
   N        2.38912         6.21440        -1.77343
   C        1.65125         3.58333        -5.84720
   C        1.50657         2.17223        -5.69698
   C        1.59881         1.32600        -6.76445
   C        1.83225         1.86232        -8.05084
   C        1.95715         3.27345        -8.20928
   C        1.86426         4.12606        -7.08548
   C        2.18193         3.79480        -9.49955
   C        2.28429         2.96406       -10.58200
   C        2.16392         1.57513       -10.42494
   C        1.94262         1.03607        -9.18665
   C        1.24875         1.85472        -4.28186
   O        1.12811         0.76965        -3.76422
   C        1.09283         3.18114        -3.60997
   C        0.49693         3.24477        -2.39250
   C       -0.11404         4.35066        -1.74740
   C       -0.36883         4.45647        -0.38994
   C       -1.01439         5.64762        -0.06746
   C       -1.29211         6.43599        -1.19891
   S       -0.74516         5.72752        -2.64441
   C       -1.94903         7.61876        -0.77703
   C       -2.08035         7.58466         0.62336
   C       -1.50020         6.34266         1.11459
   C       -1.42748         5.92062         2.40839
   C       -1.93518         6.69042         3.47730
   N       -2.35016         7.31424         4.34458
   C       -0.85003         4.68264         2.76465
   N       -0.39197         3.67358         3.05708
   C       -2.70608         8.72158         1.13646
   C       -3.04399         9.60608         0.13109
   S       -2.59021         9.03581        -1.46521
   C       -3.68145        10.88706         0.19465
   C       -4.09653        11.53345         1.31572
   C       -4.70894        12.82345         1.21479
   C       -5.14391        13.52254         2.32677
   C       -5.73715        14.79019         2.21090
   N       -6.21833        15.82753         2.10083
   C       -5.01504        13.00743         3.62710
   N       -4.91250        12.58206         4.68898
   C       -4.84222        13.35500        -0.10777
   C       -4.40363        12.64586        -1.17974
   O       -3.83034        11.42208        -1.04759
   C       -4.47172        13.06810        -2.54925
   C       -4.02212        12.33471        -3.63102
   C       -4.21009        13.01841        -4.82995
   C       -4.80812        14.27813        -4.65068
   S       -5.14081        14.61712        -3.00995
   C       -4.94019        14.89717        -5.92074
   C       -4.41699        14.02633        -6.89939
   C       -3.96318        12.80876        -6.24792
   C       -3.44194        11.69150        -6.82994
   C       -3.29118        11.55475        -8.22750
   N       -3.18461        11.40902        -9.35901
   C       -3.04762        10.57227        -6.06502
   N       -2.73100         9.66438        -5.43994
   C       -4.45500        14.56066        -8.18242
   C       -5.00491        15.83366        -8.19900
   S       -5.51365        16.35075        -6.58954
   C       -5.25652        16.72153        -9.27074
   C       -4.65409        16.76349       -10.49374
   C       -5.04283        17.65237       -11.57638
   C       -6.25646        18.27356       -11.71295
   C       -6.59759        19.10395       -12.80129
   N       -6.92868        19.79385       -13.65671
   C       -7.33741        18.13297       -10.81705
   N       -8.26095        18.04195       -10.14075
   C       -3.95425        17.68244       -12.54272
   C       -2.95361        16.76011       -12.12298
   C       -3.36288        16.11923       -10.86331
   O       -2.73413        15.29394       -10.23702
   C       -1.80766        16.56264       -12.83862
   C       -1.60566        17.29536       -14.02928
   C       -2.59832        18.22680       -14.45204
   C       -3.77551        18.40864       -13.69055
   C       -2.38227        18.95708       -15.63835
   C       -1.24253        18.77619       -16.37387
   C       -0.26676        17.85820       -15.95742
   C       -0.44465        17.13301       -14.81040
   H        1.49662         0.25948        -6.62986
   H        1.95219         5.19146        -7.23199
   H        2.27722         4.86444        -9.61479
   H        2.45942         3.37282       -11.56579
   H        2.24705         0.93447       -11.28998
   H        1.84881        -0.03249        -9.05992
   H        0.41353         2.29743        -1.86725
   H       -0.06012         3.70705         0.31624
   H       -2.90323         8.89974         2.17741
   H       -3.96450        11.08353         2.28538
   H       -5.29253        14.32502        -0.24804
   H       -3.58104        11.36015        -3.53007
   H       -4.10800        14.06015        -9.06639
   H       -5.99920        17.48081        -9.05327
   H       -1.06574        15.85487       -12.49993
   H       -4.50480        19.12621       -14.03177
   H       -3.13689        19.66154       -15.95592
   H       -1.08666        19.33987       -17.28136
   H        0.62664        17.72880       -16.54968
   H        0.30298        16.42484       -14.48451
*
