# ORCA input file
# SCF done       -166.416799112986          0.000341704668
! CAM-B3LYP def2-SVP def2/J RIJCOSX Grid4 TightSCF
%maxcore 5000
%tddft
    Mode sTDDFT
    Ethresh 5.0
    maxcore 5000
end

%pal
  nprocs 6
  end
* xyz 0 1
   C       -0.84250        -1.90824         0.33989
   S       -0.59973        -0.35416        -0.35238
   C       -0.57772         0.38908         1.22410
   C       -0.73040        -0.56186         2.21197
   C       -0.87802        -1.87855         1.70303
   S       -1.03197        -3.37888         2.61319
   C       -1.98740        -2.89826         4.10923
   C       -2.96693        -1.75687         3.87045
   C       -2.42554        -0.42325         4.36969
   S       -0.66915        -0.14583         3.92502
   C       -0.42692         1.78937         1.41447
   C       -0.26047         2.67216         0.40513
   C       -0.09674         4.07770         0.51158
   S       -0.26624         5.00427        -0.95537
   C       -0.00153         6.49851        -0.11090
   C        0.21927         6.27122         1.24218
   C        0.19648         4.90183         1.59204
   S        0.53402         4.19559         3.17372
   C        1.72781         5.38007         3.88971
   C        1.03225         6.45852         4.70454
   C       -0.07787         7.11553         3.89984
   S        0.51600         7.67938         2.26632
   C       -0.04433         7.75596        -0.76047
   C       -0.16751         7.89719        -2.10203
   C       -0.22757         9.09192        -2.86101
   S       -0.54874         8.91229        -4.56189
   C       -0.49284        10.63012        -4.82960
   C       -0.26023        11.30427        -3.63347
   C       -0.06904        10.43594        -2.53266
   S        0.36705        10.87090        -0.87781
   C        1.27546        12.44350        -1.07957
   C        0.34364        13.64054        -0.98617
   C       -0.83560        13.47182        -1.93012
   S       -0.28147        13.07030        -3.62478
   C       -0.68880        11.07011        -6.16168
   C       -0.53409        12.31961        -6.66290
   C       -0.74383        12.64632        -8.02330
   S       -1.09570        11.43810        -9.22699
   C       -1.15630        12.63921       -10.48527
   C       -0.93335        13.91285        -9.97587
   C       -0.67501        13.91400        -8.58983
   S       -0.33124        15.28383        -7.53120
   C        0.52789        16.43518        -8.66193
   C       -0.43942        17.38434        -9.35136
   C       -1.57928        16.62626       -10.01337
   S       -0.97111        15.28131       -11.09120
   C       -1.41225        12.29784       -11.83348
   C       -1.56182        11.03001       -12.28413
   C       -1.83320        10.68335       -13.62912
   S       -2.09804        11.88722       -14.85691
   C       -2.33542        10.66732       -16.07052
   C       -2.20324         9.39665       -15.54107
   C       -1.93950         9.40184       -14.15158
   S       -1.69866         8.03059       -13.06669
   C       -2.76095         6.75018       -13.82318
   C       -2.00231         5.90586       -14.83490
   C       -1.28451         6.77679       -15.85396
   S       -2.40483         8.00470       -16.61296
   C       -2.61399        11.00535       -17.43475
   C       -2.78080        12.24579       -17.88899
   H       -0.92020        -2.77034        -0.29089
   H       -1.27371        -2.64881         4.89424
   H       -2.50250        -3.81957         4.37798
   H       -3.90485        -1.96009         4.39356
   H       -3.19928        -1.68477         2.80496
   H       -2.43086        -0.38106         5.45868
   H       -3.00800         0.40982         3.97510
   H       -0.46267         2.11604         2.44257
   H       -0.27629         2.29735        -0.61186
   H        2.30061         5.80390         3.06638
   H        2.38832         4.77813         4.51234
   H        1.77190         7.20607         5.00012
   H        0.59964         6.02253         5.60787
   H       -0.45108         8.00975         4.39710
   H       -0.90637         6.43077         3.72578
   H        0.02974         8.61326        -0.10991
   H       -0.24290         6.99359        -2.69696
   H        1.78938        12.40587        -2.03865
   H        2.01275        12.44953        -0.27796
   H        0.90229        14.54323        -1.24331
   H       -0.03255        13.74331         0.03413
   H       -1.40292        14.39641        -2.02760
   H       -1.50247        12.67508        -1.60459
   H       -0.97822        10.28396        -6.84996
   H       -0.23113        13.14197        -6.03339
   H        1.07772        15.83100        -9.38190
   H        1.23551        16.97989        -8.03833
   H        0.11079        17.95857       -10.10032
   H       -0.86148        18.08018        -8.62255
   H       -2.16120        17.27910       -10.66253
   H       -2.24059        16.17377        -9.27600
   H       -1.47614        13.12518       -12.52913
   H       -1.46391        10.20251       -11.59257
   H       -3.60678         7.26088       -14.28110
   H       -3.11753         6.14229       -12.99274
   H       -2.71266         5.24812       -15.34127
   H       -1.26159         5.28708       -14.32306
   H       -0.90278         6.18022       -16.68151
   H       -0.46127         7.32755       -15.40132
   H       -2.68668        10.15790       -18.10420
   H       -2.72478        13.09680       -17.23019
   H       -2.98014        12.44318       -18.92677
*
