# ORCA input file
# SCF done       -132.911473888890          0.000200635818
! CAM-B3LYP def2-SVP def2/J RIJCOSX Grid4 TightSCF
%maxcore 5000
%tddft
    Mode sTDDFT
    Ethresh 5.0
    maxcore 5000
end

%pal
  nprocs 6
  end
* xyz 0 1
   C        7.10161        -5.94369        -6.82538
   S        6.89646        -6.07015        -5.11466
   C        5.74739        -7.37963        -5.23937
   C        5.55150        -7.68541        -6.57580
   C        6.32692        -6.86080        -7.45890
   S        6.01250        -7.31693        -9.10605
   C        4.90238        -8.53592        -8.47071
   N        4.77283        -8.60595        -7.20646
   C        5.17566        -7.95149        -4.07691
   C        4.28512        -8.97364        -4.11252
   C        3.70596        -9.54754        -2.95603
   S        2.59146       -10.87399        -3.09937
   C        2.35356       -10.98950        -1.40862
   C        3.09428       -10.05185        -0.73201
   C        3.86171        -9.21636        -1.61013
   N        4.60070        -8.19653        -1.11668
   C        4.60530        -8.02912         0.17551
   C        3.93181        -8.95588         1.07609
   N        4.06303        -8.83316         2.42461
   C        3.50562        -9.83169         3.30428
   N        3.17875        -9.91970         0.61570
   N        5.35755        -6.96984         0.67342
   C        6.12854        -6.23208        -0.32027
   C        4.83194        -6.24047         1.74008
   C        5.60004        -5.75261         2.75331
   O        5.06253        -4.98965         3.78168
   C        3.70028        -4.91199         3.78553
   C        2.90191        -5.47182         2.74604
   C        1.57288        -5.28964         2.94054
   S        1.27145        -4.42493         4.39904
   C        2.95709        -4.31545         4.74940
   O        3.46301        -6.10373         1.67203
   C        7.00019        -6.01397         2.85680
   C        7.75667        -5.58097         3.89503
   C        9.13853        -5.82654         4.06967
   S        9.83936        -5.50024         5.63359
   C       11.42966        -6.04224         5.15330
   C       11.38288        -6.42666         3.82414
   C       10.11397        -6.31427         3.19990
   C       10.17449        -6.69383         1.82851
   C       11.41043        -7.08331         1.43859
   C       11.84731        -7.53539         0.09395
   S       12.59293        -7.01436         2.73813
   C       12.51510        -6.05934         6.05667
   C       12.39290        -5.62636         7.47165
   C       13.56709        -5.76714         8.08010
   C       14.55304        -6.30795         7.08512
   O       15.71994        -6.56191         7.28696
   C       13.79594        -6.45883         5.83625
   H        7.76791        -5.21268        -7.23386
   H        4.37819        -9.17132        -9.15719
   H        5.47157        -7.53901        -3.12467
   H        3.99149        -9.38789        -5.06710
   H        1.69769       -11.73123        -1.00146
   H        4.87733        -8.34487         2.76414
   H        4.15302       -10.70962         3.39235
   H        2.55133       -10.14781         2.88992
   H        3.35754        -9.39227         4.28958
   H        5.47356        -5.81944        -1.09152
   H        6.82731        -6.91862        -0.79561
   H        6.66671        -5.42611         0.17138
   H        0.76664        -5.60750         2.31349
   H        3.29941        -3.81616         5.63125
   H        7.42277        -6.62836         2.08043
   H        7.27212        -5.02428         4.68524
   H        9.34039        -6.65950         1.15238
   H       11.01407        -7.50692        -0.60392
   H       12.23516        -8.55274         0.14100
   H       12.64534        -6.89536        -0.28137
   H       11.46736        -5.26490         7.88427
   H       13.82500        -5.54964         9.09879
   H       14.22284        -6.82966         4.92482
*
