# ORCA input file
# SCF done       -161.387267565484          0.000652277962
! CAM-B3LYP def2-SVP def2/J RIJCOSX Grid4 TightSCF
%maxcore 5000
%tddft
    Mode sTDDFT
    Ethresh 5.0
    maxcore 5000
end

%pal
  nprocs 6
  end
* xyz 0 1
   C        9.39216        -7.60432        -8.91894
   S        8.43474        -7.86595       -10.31231
   C        7.35795        -6.59156        -9.92574
   C        7.71856        -5.97831        -8.75634
   C        8.89451        -6.57319        -8.16558
   N        9.36896        -6.12707        -6.97970
   C        8.72893        -5.15793        -6.38711
   C        7.61664        -4.47440        -7.04945
   N        7.06574        -3.33768        -6.51144
   C        6.26453        -2.49274        -7.37695
   N        7.14332        -4.89346        -8.18729
   N        9.21009        -4.72935        -5.16605
   C       10.60676        -4.96644        -4.86042
   C        8.36787        -4.27002        -4.17905
   C        8.79227        -3.63998        -3.07114
   C        8.02933        -3.20149        -1.92341
   C        8.70129        -3.00689        -0.74712
   F       10.01100        -3.20461        -0.56657
   S        7.74617        -2.48863         0.59125
   C        6.38018        -2.50729        -0.46545
   F        5.20635        -2.14960         0.06353
   C        6.62426        -2.88382        -1.76262
   C        5.63489        -2.91154        -2.80936
   C        4.34695        -2.52391        -2.67424
   C        3.35412        -2.58688        -3.68582
   S        1.80974        -1.82066        -3.39053
   C        1.12114        -2.30505        -4.91137
   C        2.05978        -3.03772        -5.62459
   C        3.30134        -3.19455        -4.93033
   N        4.07600        -3.97513        -5.72342
   N        3.43149        -4.31068        -6.85470
   C        2.24074        -3.78014        -6.82505
   C       -0.19644        -1.89607        -5.30907
   C       -0.56850        -1.70192        -6.61180
   F        0.20305        -1.84375        -7.68802
   S       -2.19717        -1.16223        -6.83514
   C       -2.38699        -1.17248        -5.11941
   F       -3.57379        -0.85638        -4.61300
   C       -1.28764        -1.58064        -4.41532
   C       -1.24256        -1.75612        -2.98556
   C       -2.01867        -1.09589        -2.11228
   C       -1.97717        -1.28416        -0.68162
   C       -2.18234        -0.19891         0.19880
   C       -2.39464         1.19155        -0.24173
   O       -2.40641         1.63165        -1.35329
   S       -2.63261         2.24176         1.20327
   C       -2.40416         0.89054         2.35648
   O       -2.44537         1.01273         3.54307
   C       -2.16831        -0.34888         1.58860
   C       -1.95526        -1.57567         2.20156
   C       -1.76674        -2.64669         1.34716
   C       -1.77212        -2.52181        -0.04582
   C       -1.62691        -3.89522        -0.58980
   O       -1.61406        -4.29668        -1.71324
   O       -1.51125        -4.75237         0.48086
   C       -1.57735        -4.07860         1.67591
   O       -1.49545        -4.61713         2.73433
   H       10.24114        -8.22400        -8.71611
   H        6.52904        -6.36542       -10.56373
   H        7.66851        -2.83076        -5.87586
   H        5.54887        -3.12086        -7.90319
   H        6.87579        -1.97111        -8.11874
   H        5.74117        -1.76232        -6.76283
   H       11.16356        -4.02643        -4.85750
   H       11.00951        -5.62451        -5.62607
   H       10.70263        -5.44424        -3.88557
   H        7.32961        -4.51690        -4.33411
   H        9.85354        -3.47578        -2.95040
   H        5.97375        -3.24458        -3.77512
   H        3.99275        -2.11869        -1.73951
   H        5.02955        -4.27004        -5.60057
   H        1.55763        -3.93294        -7.63379
   H       -0.50952        -2.46479        -2.63276
   H       -2.67714        -0.31272        -2.45762
   H       -1.94954        -1.68127         3.27425
*
