# ORCA input file
# SCF done       -148.615637784188          0.000824366817
! CAM-B3LYP def2-SVP def2/J RIJCOSX Grid4 TightSCF
%maxcore 5000
%tddft
    Mode sTDDFT
    Ethresh 5.0
    maxcore 5000
end

%pal
  nprocs 6
  end
* xyz 0 1
   C       -0.46597         3.74377        -1.10690
   S        0.83090         4.40412        -0.20521
   C        1.95551         3.22433        -0.83434
   C        1.30976         2.36228        -1.71318
   C       -0.07913         2.67051        -1.86049
   C       -0.95412         1.94516        -2.69212
   N       -1.67006         1.36129        -3.36962
   C        1.89647         1.29452        -2.40606
   N        2.33740         0.41238        -2.99426
   C        3.30402         3.28145        -0.40117
   C        4.29062         2.43635        -0.80151
   C        5.63592         2.47219        -0.38353
   S        6.71245         1.26399        -1.05721
   C        8.09402         1.85765        -0.17410
   C        7.70455         2.94573         0.59486
   C        6.33648         3.30411         0.49460
   C        6.04325         4.42359         1.32062
   C        7.12333         4.88529         1.99912
   C        7.20039         6.03886         2.92613
   S        8.58160         3.96963         1.67480
   C        9.37157         1.28388        -0.25912
   S       10.67158         1.94545         0.70660
   C       11.83563         0.78218         0.12155
   C       11.20517        -0.05292        -0.79430
   C        9.83095         0.20342        -1.01027
   C        9.26048        -0.70873        -1.93898
   C       10.15764        -1.61029        -2.40373
   C        9.92793        -2.70795        -3.37487
   S       11.76940        -1.38765        -1.72828
   C       13.20840         0.69520         0.46417
   C       13.89756         1.41327         1.43369
   O       15.25530         1.25142         1.62879
   C       15.87402         0.32936         0.84618
   C       15.16104        -0.43042        -0.12285
   C       15.94745        -1.30251        -0.80081
   S       17.58073        -1.20692        -0.26199
   C       17.19407         0.02017         0.88626
   O       13.82308        -0.25587        -0.32112
   C       13.30332         2.33554         2.31805
   C       13.98001         3.03905         3.27865
   C       13.29087         3.91401         4.13218
   C       13.85278         4.64092         5.15286
   C       13.16480         5.54051         6.04668
   C       11.83689         5.89511         6.01439
   C       10.87478         5.44743         5.09075
   N       10.00717         5.15827         4.39317
   C       11.23057         6.79253         6.91671
   N       10.66102         7.51424         7.60585
   C       14.14292         6.03971         7.01338
   C       15.40026         5.48990         6.71092
   C       15.28446         4.60222         5.53765
   O       16.18285         3.97584         5.01342
   C       16.51487         5.79383         7.46766
   C       16.36700         6.65709         8.54168
   C       15.12835         7.21006         8.86029
   C       14.00891         6.89915         8.09008
   C       14.99516         8.11947        10.04090
   H       -1.44676         4.17184        -1.04170
   H        3.52503         4.07066         0.30043
   H        4.05157         1.65252        -1.50695
   H        5.07411         4.87626         1.41659
   H        7.89706         5.82342         3.73405
   H        6.21979         6.26916         3.33584
   H        7.57157         6.91946         2.39968
   H        8.22882        -0.68717        -2.23870
   H       10.56210        -2.58040        -4.25172
   H        8.88758        -2.71904        -3.68945
   H       10.17328        -3.67041        -2.92687
   H       15.66047        -1.98387        -1.57382
   H       17.94947         0.43899         1.51709
   H       12.23803         2.48084         2.24833
   H       15.04684         2.92388         3.39159
   H       12.22425         4.00577         3.96446
   H       17.47222         5.36261         7.21812
   H       17.22508         6.90911         9.14784
   H       13.05557         7.33228         8.34681
   H       15.84462         8.79602        10.10602
   H       14.96683         7.53112        10.95856
   H       14.07932         8.70167         9.98296
*
