# ORCA input file
# SCF done       -175.310592469585          0.000837761271
! CAM-B3LYP def2-SVP def2/J RIJCOSX Grid4 TightSCF
%maxcore 5000
%tddft
    Mode sTDDFT
    Ethresh 5.0
    maxcore 5000
end

%pal
  nprocs 6
  end
* xyz 0 1
   C       -7.79522         2.97283         7.09723
   N       -6.48881         2.92058         6.89444
   C       -6.01283         1.77610         6.42544
   C       -6.82887         0.69097         6.15801
   C       -8.19809         0.85293         6.40637
   N       -8.66651         2.01339         6.88102
   C       -9.13883        -0.21705         6.15998
   C      -10.45770        -0.09319         6.40149
   C      -11.40423        -1.13071         6.15675
   O      -11.01809        -2.31952         5.65667
   C      -12.11181        -3.10265         5.51381
   C      -13.23567        -2.41202         5.93136
   C      -12.78259        -1.14916         6.34435
   C      -13.61223        -0.03790         6.87731
   F      -13.53928         1.07273         6.11945
   F      -14.90971        -0.36400         6.94937
   F      -13.24297         0.33715         8.11628
   C      -11.99735        -4.41975         4.98809
   C      -10.81834        -4.98526         4.64039
   C      -10.70418        -6.28714         4.08524
   O      -11.79268        -7.04331         3.83520
   C      -11.39178        -8.21148         3.28083
   C      -10.00952        -8.22187         3.17374
   C       -9.57136        -6.99347         3.68902
   C       -8.16919        -6.52001         3.77637
   F       -7.83671        -6.07637         5.00290
   F       -7.28445        -7.47936         3.46793
   F       -7.91338        -5.49197         2.93889
   C      -12.37566        -9.15110         2.86879
   C      -12.07226       -10.29834         2.21599
   C      -13.03731       -11.24201         1.75735
   C      -12.75328       -12.21931         0.83640
   O      -13.62869       -13.24645         0.54833
   C      -14.83959       -13.17312         1.17085
   C      -15.16953       -12.10405         2.05479
   C      -16.42781       -12.20271         2.54925
   S      -17.23108       -13.60475         1.94482
   C      -15.85299       -14.05995         1.01455
   O      -14.28183       -11.11720         2.35927
   C      -11.54156       -12.31353         0.07525
   C      -10.77650       -11.26196        -0.29231
   C       -9.50985       -11.29512        -0.97188
   C       -8.80878       -10.11228        -1.08022
   C       -7.53417       -10.07732        -1.67764
   C       -6.62155        -9.04861        -1.86398
   C       -6.71925        -7.61619        -1.45248
   C       -7.88741        -6.90726        -2.15457
   N       -7.71042        -6.99148        -3.59434
   C       -6.80993        -7.47969         0.07751
   N       -5.56947        -7.95222         0.66625
   C       -5.48713        -9.62242        -2.54686
   C       -4.32857        -9.07374        -2.95760
   C       -3.30866        -9.86455        -3.69692
   C       -3.62221       -11.32138        -3.82582
   C       -4.77672       -11.86060        -3.39463
   C       -5.75015       -11.05218        -2.75837
   C       -6.99080       -11.31934        -2.22123
   C       -7.74104       -12.51519        -2.11758
   C       -8.94900       -12.50431        -1.50334
   C       -3.18847        -9.27326        -5.08834
   C       -2.08298        -8.75295        -5.58357
   H       -8.18916         3.90770         7.47588
   H       -4.94277         1.73878         6.26390
   H       -6.43408        -0.23735         5.77735
   H       -8.73706        -1.13913         5.76425
   H      -10.83690         0.83751         6.79640
   H      -14.24573        -2.76585         5.94023
   H      -12.92002        -4.96661         4.86884
   H       -9.89722        -4.43862         4.77408
   H       -9.39271        -9.00437         2.78370
   H      -13.40467        -8.88192         3.05166
   H      -11.04086       -10.55249         2.03252
   H      -16.92358       -11.54041         3.22728
   H      -15.86847       -14.94409         0.41260
   H      -11.31038       -13.31455        -0.25908
   H      -11.12984       -10.26702        -0.05342
   H       -9.24319        -9.20679        -0.68061
   H       -5.79546        -7.11183        -1.75260
   H       -7.94421        -5.86989        -1.77962
   H       -8.82972        -7.40312        -1.91371
   H       -6.85950        -6.51342        -3.87194
   H       -8.48636        -6.54881        -4.07369
   H       -7.70014        -8.01557         0.44414
   H       -6.92123        -6.42376         0.34143
   H       -5.44900        -8.94015         0.46432
   H       -5.59290        -7.84091         1.67341
   H       -4.10062        -8.02814        -2.80299
   H       -2.33643        -9.74197        -3.20063
   H       -2.87192       -11.92025        -4.31978
   H       -4.97169       -12.91640        -3.51809
   H       -7.33711       -13.42948        -2.52787
   H       -9.52005       -13.41563        -1.42219
   H       -4.09872        -9.31951        -5.66957
   H       -1.16825        -8.70097        -5.01556
   H       -2.04453        -8.35794        -6.58462
*
