# ORCA input file
# SCF done       -254.918312931563          0.000429581691
! CAM-B3LYP def2-SVP def2/J RIJCOSX Grid4 TightSCF
%maxcore 5000
%tddft
    Mode sTDDFT
    Ethresh 5.0
    maxcore 5000
end

%pal
  nprocs 6
  end
* xyz 0 1
   C        5.10910        -6.87245         3.46183
   S        3.67871        -6.12156         2.92656
   C        2.77880        -7.60586         2.96735
   C        3.60048        -8.65900         3.39720
   C        4.93826        -8.22256         3.67671
   C        5.90743        -9.16402         4.12047
   C        7.29690        -8.69220         4.39772
   F        7.88740        -8.14490         3.31379
   F        7.34609        -7.73923         5.35223
   F        8.11636        -9.67068         4.80969
   C        5.54794       -10.47226         4.27758
   C        4.24076       -10.90501         4.00548
   C        3.26765       -10.03348         3.56944
   O        1.99500       -10.39369         3.28596
   C        1.61316       -11.74215         3.43333
   C        1.41908        -7.64975         2.59039
   C        0.71079        -6.57235         2.15578
   C       -0.63686        -6.63758         1.73958
   S       -1.39008        -8.20182         1.65469
   C       -2.82982        -7.59367         0.92172
   C       -2.77607        -6.19595         0.83288
   C       -1.53218        -5.64345         1.29675
   C       -1.38612        -4.22800         1.28730
   C       -0.15992        -3.52134         1.78065
   F        0.93548        -3.75155         1.02416
   F       -0.29970        -2.18560         1.78830
   F        0.17399        -3.84627         3.04517
   C       -2.42355        -3.44242         0.84694
   C       -3.64606        -3.98010         0.44165
   C       -3.85196        -5.34054         0.44934
   O       -5.01963        -5.93351         0.14908
   C       -6.15619        -5.13994        -0.10115
   C       -3.77296        -8.56104         0.48185
   C       -4.53015        -8.47921        -0.63730
   C       -5.39354        -9.50265        -1.11377
   S       -5.38884        -9.75151        -2.83162
   C       -6.28425       -11.22643        -2.72386
   C       -6.62455       -11.49311        -1.38768
   C       -6.17166       -10.47994        -0.47585
   C       -6.63540       -10.53304         0.86876
   C       -6.55038        -9.38635         1.83272
   F       -6.58121        -8.18015         1.25085
   F       -7.59772        -9.38868         2.68442
   F       -5.46360        -9.40798         2.63380
   C       -7.32911       -11.63981         1.29290
   C       -7.63318       -12.70178         0.43696
   C       -7.33202       -12.63177        -0.90458
   O       -7.65908       -13.58087        -1.80599
   C       -8.43411       -14.68246        -1.39043
   C       -6.60570       -11.95778        -3.88636
   C       -6.10991       -11.68309        -5.12009
   C       -6.45683       -12.40475        -6.29107
   S       -5.17047       -12.78155        -7.39175
   C       -6.11132       -13.96354        -8.24054
   C       -7.43744       -13.94688        -7.78327
   C       -7.64329       -13.04362        -6.68287
   C       -8.97091       -12.83188        -6.21942
   C       -9.39625       -11.71609        -5.30877
   F       -8.62257       -10.62377        -5.35932
   F      -10.63304       -11.27857        -5.62892
   F       -9.49059       -12.06785        -4.00770
   C       -9.98684       -13.60462        -6.73078
   C       -9.78275       -14.50740        -7.77573
   C       -8.54487       -14.62986        -8.36695
   O       -8.31262       -15.30460        -9.50807
   C       -9.38800       -15.93822       -10.16275
   C       -5.40768       -14.80929        -9.13429
   C       -5.68677       -16.11783        -9.36638
   C       -4.93174       -16.94158       -10.23414
   S       -3.76553       -16.18654       -11.27324
   C       -3.32387       -17.66512       -12.04003
   C       -4.05540       -18.72956       -11.50458
   C       -4.96370       -18.32862       -10.46049
   C       -5.72111       -19.34146        -9.80513
   C       -6.61513       -19.08111        -8.63140
   F       -7.73368       -18.38524        -8.94115
   F       -7.06858       -20.21292        -8.06569
   F       -6.01399       -18.40827        -7.63219
   C       -5.61710       -20.64291       -10.22669
   C       -4.76729       -21.02384       -11.26944
   C       -3.97177       -20.09992       -11.90095
   O       -3.10010       -20.40503       -12.88836
   C       -2.97069       -21.74885       -13.29491
   C       -2.32911       -17.66521       -13.07125
   C       -1.67363       -16.57856       -13.48309
   H        5.99881        -6.29045         3.59174
   H        6.27408       -11.19540         4.61549
   H        4.01945       -11.94936         4.14838
   H        0.56318       -11.77885         3.14730
   H        1.71927       -12.07762         4.46911
   H        2.19206       -12.39608         2.77445
   H        0.93880        -8.61415         2.65747
   H        1.22943        -5.63179         2.10179
   H       -2.31350        -2.36960         0.83631
   H       -4.42885        -3.30242         0.14582
   H       -6.97293        -5.84802        -0.22637
   H       -6.03930        -4.54736        -1.01403
   H       -6.37499        -4.47775         0.74104
   H       -3.76392        -9.48964         1.03719
   H       -4.38357        -7.64906        -1.31222
   H       -7.67624       -11.69090         2.31336
   H       -8.15555       -13.54984         0.84587
   H       -8.61465       -15.26689        -2.29115
   H       -9.39057       -14.35985        -0.97005
   H       -7.89793       -15.29727        -0.66116
   H       -7.27226       -12.79402        -3.75734
   H       -5.32135       -10.94791        -5.22287
   H      -10.99271       -13.46857        -6.36401
   H      -10.63379       -15.04545        -8.15705
   H       -8.95893       -16.37476       -11.06255
   H      -10.16684       -15.22073       -10.43751
   H       -9.81523       -16.73462        -9.54812
   H       -4.50418       -14.38448        -9.55594
   H       -6.52487       -16.54654        -8.85428
   H       -6.19443       -21.41252        -9.73940
   H       -4.74220       -22.06405       -11.54591
   H       -2.20923       -21.74587       -14.07319
   H       -3.90757       -22.13480       -13.70690
   H       -2.64187       -22.38622       -12.46910
   H       -2.12165       -18.62338       -13.51943
   H       -1.85658       -15.60741       -13.05285
   H       -0.93420       -16.63221       -14.26173
*
