# ORCA input file
# SCF done       -196.604307753465          0.000394239196
! CAM-B3LYP def2-SVP def2/J RIJCOSX Grid4 TightSCF
%maxcore 5000
%tddft
    Mode sTDDFT
    Ethresh 5.0
    maxcore 5000
end

%pal
  nprocs 6
  end
* xyz 0 1
   C       -0.70863         0.82434         1.98454
   S       -1.07174        -0.60109         2.84370
   C       -1.60452        -1.42387         1.40149
   C       -1.48806        -0.57514         0.28850
   C       -0.97413         0.71334         0.63508
   C       -0.80113         1.68896        -0.37467
   C       -1.12031         1.40728        -1.66800
   C       -0.95709         2.40906        -2.76564
   C       -1.63275         0.11239        -2.00783
   O       -1.91129        -0.04708        -3.32872
   C       -2.41807        -1.28252        -3.76877
   C       -1.81193        -0.85506        -1.05096
   C       -2.07578        -2.74632         1.42980
   C       -2.18315        -3.51292         2.55362
   C       -2.66472        -4.83213         2.56617
   S       -3.16189        -5.62261         1.09808
   C       -3.58321        -7.09866         1.91390
   C       -3.35671        -6.97734         3.29531
   C       -2.83533        -5.69497         3.66561
   C       -2.56742        -5.42737         5.03116
   C       -2.04449        -4.20442         5.50409
   N       -1.61901        -3.25032         5.98006
   C       -2.82158        -6.39699         5.98797
   C       -3.33656        -7.63857         5.62885
   C       -3.60453        -7.94267         4.30413
   C       -4.12015        -9.23148         4.05092
   N       -4.52334       -10.30144         3.94179
   C       -4.11357        -8.19643         1.22220
   C       -4.35708        -8.24980        -0.11860
   C       -4.98293        -9.35071        -0.73898
   S       -4.56219        -9.77835        -2.36987
   C       -5.41696       -11.29293        -2.29606
   C       -6.12222       -11.39835        -1.08587
   C       -5.88335       -10.28738        -0.20615
   C       -6.64145       -10.16886         0.98766
   C       -6.69704        -8.98830         1.76149
   N       -6.87138        -8.04688         2.39474
   C       -7.50208       -11.18754         1.35975
   C       -7.71916       -12.27563         0.52055
   C       -7.09390       -12.36427        -0.71381
   C       -7.59047       -13.36966        -1.57205
   N       -8.10979       -14.18419        -2.19246
   C       -5.25530       -12.19496        -3.37124
   C       -5.31296       -13.55083        -3.26657
   C       -5.22045       -14.42338        -4.38058
   C       -5.32593       -15.79796        -4.30126
   O       -5.29886       -16.60317        -5.42145
   C       -5.16286       -15.96323        -6.61316
   C       -5.03950       -14.54626        -6.69540
   C       -4.90535       -14.10299        -7.96959
   S       -4.92881       -15.41291        -9.09226
   C       -5.12091       -16.56766        -7.82646
   O       -5.06124       -13.75959        -5.58740
   C       -5.48930       -16.52344        -3.08547
   C       -5.74231       -17.85387        -3.04553
   C       -5.92400       -18.64776        -1.86416
   C       -6.40370       -19.93435        -2.00255
   C       -6.62695       -20.75129        -0.87519
   C       -7.11460       -22.04592        -0.73667
   C       -7.60207       -23.02344        -1.75872
   C       -9.03332       -22.68367        -2.22650
   N       -9.07805       -21.42031        -2.93929
   C       -6.66046       -23.17716        -2.96144
   N       -5.32945       -23.54128        -2.49988
   C       -7.10607       -22.34103         0.67855
   C       -7.47258       -23.44368         1.35861
   C       -7.32685       -23.53657         2.83706
   C       -6.86049       -22.27814         3.49750
   C       -6.50522       -21.18025         2.80684
   C       -6.59739       -21.16357         1.39330
   C       -6.31038       -20.20786         0.44427
   C       -5.80211       -18.89150         0.55743
   C       -5.62200       -18.14026        -0.55475
   C       -6.32687       -24.63772         3.13119
   C       -6.60422       -25.73401         3.80896
   H       -0.31936         1.67589         2.50651
   H       -0.41385         2.65964        -0.10372
   H       -0.55923         3.34354        -2.38012
   H       -1.91677         2.59753        -3.24419
   H       -0.28579         2.02033        -3.52959
   H       -2.56116        -1.17665        -4.84300
   H       -3.37838        -1.51416        -3.29694
   H       -1.71288        -2.09753        -3.57624
   H       -2.19816        -1.82879        -1.30344
   H       -2.37699        -3.17300         0.48153
   H       -1.88687        -3.08667         3.50055
   H       -2.61823        -6.18059         7.02600
   H       -3.53244        -8.37822         6.39064
   H       -4.32859        -9.06872         1.81886
   H       -3.99792        -7.45543        -0.76044
   H       -8.05550       -11.10111         2.28218
   H       -8.43915       -13.03058         0.79932
   H       -4.99508       -11.75861        -4.32586
   H       -5.42964       -14.00024        -2.29690
   H       -4.79622       -13.09532        -8.31124
   H       -5.19101       -17.61194        -8.04717
   H       -5.42772       -15.95744        -2.17314
   H       -5.85156       -18.37843        -3.98538
   H       -6.63970       -20.30260        -2.98877
   H       -7.65160       -24.00320        -1.27329
   H       -9.69527       -22.70689        -1.34263
   H       -9.36483       -23.46522        -2.91649
   H       -8.88376       -20.65471        -2.30211
   H      -10.00145       -21.26993        -3.32979
   H       -6.68885       -22.26312        -3.56817
   H       -7.02822       -23.99784        -3.58500
   H       -4.96260       -22.80609        -1.90298
   H       -4.70104       -23.64156        -3.28963
   H       -7.84785       -24.32879         0.86284
   H       -8.28943       -23.84079         3.27066
   H       -6.79405       -22.31082         4.57463
   H       -6.15677       -20.29481         3.31917
   H       -5.56317       -18.50094         1.53617
   H       -5.22685       -17.14059        -0.46616
   H       -5.33526       -24.45251         2.74289
   H       -7.58731       -25.93086         4.20511
   H       -5.85434       -26.48179         4.00345
*
