# ORCA input file
# SCF done       -142.930398482086          0.000788762720
! CAM-B3LYP def2-SVP def2/J RIJCOSX Grid4 TightSCF
%maxcore 5000
%tddft
    Mode sTDDFT
    Ethresh 5.0
    maxcore 5000
end

%pal
  nprocs 6
  end
* xyz 0 1
   C        0.76706        -0.01723         3.60284
   S        0.93942        -1.63383         4.10464
   C       -0.41850        -2.15458         3.14149
   C       -0.97561        -1.06011         2.45778
   C       -0.28915         0.16319         2.73200
   C       -0.73801         1.36335         2.13246
   C       -1.82471         1.35766         1.31168
   C       -2.34072         2.60207         0.66359
   C       -2.51255         0.12679         1.05007
   O       -3.58593         0.25216         0.22934
   C       -4.35018        -0.89405        -0.05704
   C       -2.09159        -1.05738         1.60425
   C       -0.86187        -3.48485         3.10904
   C       -0.36523        -4.50440         3.86930
   C       -0.86464        -5.81851         3.83882
   C       -0.49056        -6.90675         4.62587
   C       -1.29213        -8.02276         4.25165
   C       -2.18534        -7.58913         3.18265
   O       -3.02837        -8.19963         2.55150
   N       -1.86920        -6.25913         2.99936
   C       -0.85766        -9.10331         4.97950
   O        0.15991        -8.73312         5.79651
   C        0.43391        -7.35953         5.62942
   O        1.29959        -6.81540         6.26110
   C       -1.31578       -10.45991         4.89624
   O       -0.51581       -11.40613         5.50005
   C       -0.49558       -12.63610         4.92381
   C        0.51645       -13.53536         5.10641
   F        1.56010       -13.40371         5.91912
   S        0.32911       -14.98636         4.17618
   C       -2.45136       -10.72858         4.22013
   S       -3.01892       -12.33646         3.87567
   C       -1.45957       -13.12863         4.00603
   C       -1.13190       -14.34025         3.43241
   C       -1.70879       -15.00240         2.32443
   C       -2.30543       -14.39089         1.25121
   C       -2.86633       -15.04615         0.12143
   C       -3.30713       -14.20767        -0.85440
   C       -3.11710       -12.83589        -0.55742
   S       -2.35822       -12.65359         1.00038
   C       -3.47078       -11.73756        -1.32100
   C       -4.03909       -11.74467        -2.61336
   C       -4.26049       -10.49963        -3.11686
   C       -3.88756        -9.44233        -2.24818
   S       -3.24704       -10.09022        -0.75927
   C       -3.99600        -8.10738        -2.57792
   C       -3.69413        -6.96935        -1.82104
   C       -3.77708        -5.62471        -2.45134
   C       -3.45833        -4.69305        -1.55743
   C       -3.16432        -5.37557        -0.26270
   O       -2.86908        -4.80420         0.78442
   C       -3.31700        -6.79512        -0.51003
   H        1.44291         0.72968         3.97042
   H       -0.21155         2.28264         2.34056
   H       -1.74565         3.46414         0.95188
   H       -3.37773         2.76862         0.95041
   H       -2.31823         2.49629        -0.42000
   H       -5.15263        -0.55934        -0.71256
   H       -4.77891        -1.32902         0.85083
   H       -3.75321        -1.65302        -0.57012
   H       -2.59840        -1.98619         1.40251
   H       -1.67295        -3.68636         2.42399
   H        0.43931        -4.32382         4.56884
   H       -2.30168        -5.70015         2.26026
   H       -3.05166        -9.94697         3.78792
   H       -1.56120       -16.07250         2.26653
   H       -2.92883       -16.11900         0.07633
   H       -3.76733       -14.53449        -1.76914
   H       -4.25929       -12.65786        -3.13597
   H       -4.68303       -10.30316        -4.08660
   H       -4.36447        -7.91731        -3.58000
   H       -4.04443        -5.48275        -3.48353
   H       -3.40400        -3.62945        -1.69352
   H       -3.19641        -7.54604         0.24828
*
