# ORCA input file
# SCF done       -157.333722697305          0.000427823374
! CAM-B3LYP def2-SVP def2/J RIJCOSX Grid4 TightSCF
%maxcore 5000
%tddft
    Mode sTDDFT
    Ethresh 5.0
    maxcore 5000
end

%pal
  nprocs 6
  end
* xyz 0 1
   O       -6.44136        10.93498         2.38801
   C       -5.75018         9.83872         1.99094
   N       -5.43036         9.86218         0.72821
   C       -5.93351        11.03945         0.24960
   C       -6.55540        11.68839         1.29223
   C       -5.78124        11.44676        -1.14104
   O       -6.20537        12.47290        -1.60603
   C       -5.42530         8.79886         2.90530
   S       -4.51721         7.39923         2.31358
   C       -4.57736         6.79093         3.91392
   C       -5.26838         7.67626         4.75365
   N       -5.72723         8.77762         4.17222
   C       -5.31447         7.15755         6.15594
   C       -4.55187         5.87279         6.01297
   C       -4.14375         5.69243         4.68767
   S       -3.25434         4.24637         4.46867
   C       -3.40963         3.87563         6.17816
   C       -4.13843         4.84521         6.85130
   C       -2.76310         2.70763         6.65694
   C       -2.68381         2.32492         7.95611
   C       -1.94996         1.20324         8.42467
   S       -1.40534         1.19974        10.07797
   C       -0.46271        -0.25028         9.82688
   C       -0.63337        -0.72744         8.52583
   C       -1.48962         0.07303         7.75819
   C       -1.95515        -0.37961         6.41061
   C       -2.01182        -1.91180         6.42355
   C       -2.98199        -2.44339         7.47410
   O       -2.68941        -3.33690         8.22606
   C       -4.34300        -1.79367         7.49405
   C       -0.59981        -2.44468         6.65589
   C       -0.03703        -2.00001         8.01337
   C        0.31293        -0.71965        10.90746
   C        1.39884        -1.54548        10.81532
   C        2.17191        -1.97085        11.90112
   C        3.37329        -2.62600        11.73993
   C        4.24595        -3.11728        12.73505
   C        5.40151        -3.66004        12.24899
   C        5.50623        -3.61070        10.84374
   S        4.07630        -2.89764        10.15108
   C        6.56812        -3.99491        10.03732
   C        7.79178        -4.58078        10.40957
   C        8.64240        -4.77993         9.35888
   C        8.13365        -4.35254         8.11190
   S        6.52275        -3.71621         8.30804
   C        8.81357        -4.39749         6.90896
   C        8.37152        -3.94498         5.67330
   S        6.78522        -3.23885         5.37736
   C        7.12643        -2.94684         3.60051
   O        6.31197        -2.44483         2.87683
   C        8.46204        -3.42174         3.35443
   C        9.11540        -3.96331         4.48987
   C       10.44277        -4.42942         4.25334
   O       11.26176        -4.93280         4.97716
   S       10.78541        -4.11765         2.46940
   C        9.20840        -3.42187         2.19071
   C        8.78700        -2.92461         0.91895
   C        9.54882        -2.92014        -0.17653
   H       -7.07181        12.62426         1.35423
   H       -5.22551        10.70761        -1.74386
   H       -6.33955         6.99575         6.49385
   H       -4.83916         7.84536         6.85732
   H       -4.34549         4.79627         7.90438
   H       -2.24742         2.13368         5.90234
   H       -3.12598         2.94810         8.72106
   H       -1.25356        -0.06312         5.63315
   H       -2.92962         0.05121         6.18093
   H       -2.38002        -2.26581         5.45324
   H       -4.27133        -0.83564         8.00689
   H       -5.03794        -2.42419         8.04272
   H       -4.71300        -1.62069         6.48730
   H        0.04150        -2.08435         5.84973
   H       -0.60629        -3.53388         6.61851
   H        1.04473        -1.88333         7.91247
   H       -0.21795        -2.77791         8.75918
   H        0.05222        -0.32214        11.88093
   H        1.74418        -1.85876         9.84259
   H        1.83476        -1.76587        12.90827
   H        3.99855        -3.05359        13.78013
   H        6.17988        -4.07630        12.86279
   H        8.01851        -4.83879        11.42852
   H        9.62414        -5.21086         9.44217
   H        9.81417        -4.81180         6.92154
   H        7.77757        -2.53450         0.90119
   H       10.55524        -3.30535        -0.15785
   H        9.18771        -2.53225        -1.11229
*
