# ORCA input file
# SCF done       -177.487909133995          0.000621886112
! CAM-B3LYP def2-SVP def2/J RIJCOSX Grid4 TightSCF
%maxcore 5000
%tddft
    Mode sTDDFT
    Ethresh 5.0
    maxcore 5000
end

%pal
  nprocs 6
  end
* xyz 0 1
   C       -2.21043       -22.05743        -1.25780
   C       -1.08915       -21.33368        -1.14935
   C        0.23459       -21.69618        -1.57242
   C        1.17580       -20.76035        -1.32848
   C        0.68458       -19.58222        -0.69421
   S       -1.04415       -19.71875        -0.42285
   C        1.40244       -18.47681        -0.32143
   C        2.79847       -18.25429        -0.46827
   C        3.22088       -17.06035         0.00760
   C        2.19398       -16.24592         0.57747
   S        0.64759       -17.08302         0.43760
   C        2.40605       -15.05692         1.19871
   C        1.41252       -14.19987         1.78697
   C        0.14156       -14.14530         1.28624
   S       -0.91794       -13.04957         2.07648
   C        0.35232       -12.63111         3.18238
   C        1.56719       -13.32015         2.93089
   C        2.63247       -13.09026         3.81760
   C        3.97889       -13.71962         3.60661
   C        4.00428       -15.16679         4.10085
   C        2.40245       -12.23636         4.90760
   C        1.16206       -11.54882         4.94439
   N        0.15607       -11.73872         4.12466
   S        1.06702       -10.38286         6.22661
   C        2.62575       -10.85716         6.76583
   C        3.23291       -11.84054         6.02979
   C        4.48684       -12.41300         6.43551
   C        5.35619       -11.81865         7.29128
   C        6.59301       -12.37308         7.67692
   C        7.43991       -11.76698         8.56557
   C        8.74759       -12.16743         8.94340
   C        9.36452       -11.32735         9.81789
   C        8.57246       -10.22236        10.20885
   S        7.00817       -10.28859         9.41656
   C        8.88825        -9.17113        11.03884
   C       10.14373        -8.79693        11.57746
   C       10.13918        -7.58913        12.19674
   C        8.87290        -6.93105        12.20884
   S        7.66940        -7.98494        11.46710
   C        8.60619        -5.70239        12.72674
   C        7.31509        -5.06831        12.79368
   C        6.93507        -4.39370        13.92051
   S        5.26313        -3.98241        13.99296
   C        5.00656        -4.74468        12.44923
   C        6.21325        -5.20694        11.87003
   C        6.18113        -5.60685        10.52469
   C        7.41648        -5.50107         9.67379
   C        7.18971        -4.47835         8.55813
   C        4.91031        -5.87337         9.99159
   C        3.78644        -5.41537        10.72439
   N        3.82369        -4.78613        11.87959
   S        2.29106        -5.66531         9.87497
   C        3.13763        -6.46716         8.61037
   C        4.49656        -6.52689         8.76833
   C        5.35823        -7.30666         7.93016
   C        5.01789        -7.87718         6.74736
   C        5.89073        -8.72327         6.03312
   C        5.57025        -9.36218         4.86854
   C        6.38631       -10.26747         4.14067
   C        5.80058       -10.78324         3.03000
   C        4.47857       -10.32084         2.80639
   S        4.01818        -9.18393         4.05787
   C        3.61073       -10.68447         1.80686
   C        3.84061       -11.60877         0.74951
   C        2.77334       -11.81610        -0.05233
   C        1.61039       -11.05365         0.30109
   S        1.97961       -10.04897         1.71207
   C        0.41097       -11.06171        -0.29512
   H       -2.19165       -23.03593        -1.70434
   H       -3.15682       -21.69017        -0.90566
   H        0.41798       -22.64679        -2.04137
   H        2.21637       -20.86698        -1.57985
   H        3.44292       -18.99139        -0.91304
   H        4.24319       -16.72429        -0.01202
   H        3.43429       -14.73376         1.23171
   H       -0.22625       -14.67298         0.42882
   H        4.73654       -13.12600         4.11630
   H        4.22606       -13.68599         2.54689
   H        3.73430       -15.21856         5.15365
   H        4.99734       -15.59310         3.97393
   H        3.29367       -15.77145         3.54178
   H        3.01066       -10.39859         7.65543
   H        4.73554       -13.39821         6.07516
   H        5.13165       -10.83917         7.69104
   H        6.90572       -13.31128         7.23734
   H        9.19422       -13.05884         8.53827
   H       10.35917       -11.47178        10.20118
   H       11.01651        -9.41372        11.45513
   H       11.00556        -7.12534        12.63486
   H        9.40780        -5.20685        13.25951
   H        7.55464        -4.17687        14.76951
   H        7.70185        -6.45457         9.23201
   H        8.24527        -5.16501        10.29801
   H        6.41930        -4.81678         7.87009
   H        8.11150        -4.33183         8.00006
   H        6.88424        -3.52156         8.97682
   H        2.56259        -6.90283         7.81702
   H        6.34485        -7.51052         8.31542
   H        4.04331        -7.70496         6.31090
   H        6.87407        -8.90709         6.44672
   H        7.37941       -10.51042         4.47661
   H        6.27498       -11.48269         2.36457
   H        4.79814       -12.08367         0.62165
   H        2.75288       -12.48685        -0.89319
   H        0.22540       -11.69240        -1.14649
   H       -0.39872       -10.44962         0.05688
*
