# ORCA input file
# SCF done       -143.294878595285          0.000310657757
! CAM-B3LYP def2-SVP def2/J RIJCOSX Grid4 TightSCF
%maxcore 5000
%tddft
    Mode sTDDFT
    Ethresh 5.0
    maxcore 5000
end

%pal
  nprocs 6
  end
* xyz 0 1
   C        1.78596        -3.47665        -3.39236
   O        1.65294        -3.67308        -2.05118
   C        0.34079        -3.51247        -1.79688
   C       -0.59956        -3.53578        -0.73962
   C       -0.29990        -3.80647         0.67348
   O       -1.12367        -3.82346         1.57532
   N        1.00709        -4.04336         0.91043
   C       -1.81798        -3.24293        -1.38025
   O       -1.65248        -3.05428        -2.71685
   C       -0.34942        -3.21699        -2.96817
   C        0.60228        -3.19462        -4.01129
   C       -3.14199        -3.09957        -0.88679
   C       -4.29160        -2.78133        -1.59194
   C       -5.38809        -2.71696        -0.67428
   C       -4.85184        -3.05710         0.63864
   O       -5.38892        -3.18342         1.72496
   N       -3.49795        -3.25033         0.42657
   C       -6.51898        -2.41857        -1.41928
   O       -6.16247        -2.33383        -2.74281
   C       -4.79587        -2.53110        -2.91841
   O       -4.28552        -2.47641        -4.00217
   C       -7.90870        -2.18287        -1.22178
   S       -8.72055        -2.30622        -2.81427
   C      -10.33015        -2.81904        -2.33643
   C      -11.11299        -3.66459        -3.05773
   S      -12.65092        -3.90031        -2.32153
   C      -12.22733        -2.86778        -1.01307
   C      -10.97469        -2.36096        -1.16026
   S      -10.23363        -1.22809        -0.04470
   C       -8.52400        -1.72097        -0.07715
   C       -7.84408        -1.50132         1.14805
   C       -8.28775        -0.67961         2.13734
   C       -7.60533        -0.47962         3.35891
   S       -8.08143         0.82976         4.41126
   C       -6.83926         0.40839         5.55807
   C       -6.12756        -0.70475         5.13237
   C       -6.54748        -1.19358         3.90506
   C       -6.62374         1.15137         6.69840
   C       -6.41362         1.83297         7.68689
   C       -6.12882         2.60174         8.79703
   C       -6.54638         3.89399         8.93609
   C       -6.22380         4.69644        10.04084
   C       -6.54011         6.02668        10.15195
   C       -6.22064         6.88931        11.23151
   C       -6.62283         8.17612        11.06043
   C       -7.28649         8.41301         9.83102
   S       -7.39296         6.92683         8.90667
   C       -7.78427         9.60345         9.35637
   C       -7.74592        10.87325         9.99779
   C       -8.30154        11.87609         9.28269
   C       -8.82803        11.47545         8.00934
   S       -8.56788         9.73684         7.79481
   C       -9.42679        12.24437         7.08977
   H        2.77816        -3.56479        -3.78721
   H        1.69692        -4.03391         0.18020
   H        1.29201        -4.23788         1.85565
   H        0.44337        -3.00189        -5.05054
   H       -2.81388        -3.49562         1.14791
   H      -10.87813        -4.14281        -3.98626
   H      -12.92510        -2.67645        -0.22387
   H       -6.91582        -2.02544         1.29194
   H       -9.18550        -0.09207         1.98857
   H       -5.32287        -1.12288         5.71060
   H       -6.10928        -2.04554         3.41815
   H       -5.51814         2.14372         9.56609
   H       -7.13519         4.34178         8.14546
   H       -5.66891         4.24936        10.85623
   H       -5.69821         6.52532        12.09903
   H       -6.45941         8.96122        11.77679
   H       -7.30312        10.99552        10.97041
   H       -8.36284        12.90095         9.60326
   H       -9.56389        13.29765         7.25974
   H       -9.78570        11.83974         6.16140
*
