# ORCA input file
# SCF done       -156.307328838500          0.000369069007
! CAM-B3LYP def2-SVP def2/J RIJCOSX Grid4 TightSCF
%maxcore 5000
%tddft
    Mode sTDDFT
    Ethresh 5.0
    maxcore 5000
end

%pal
  nprocs 6
  end
* xyz 0 1
   C       -0.41517         4.77263         1.83820
   S       -1.45373         4.13385         3.06552
   C       -2.64190         3.77465         1.88937
   C       -2.23649         4.13925         0.61342
   C       -0.95589         4.71299         0.58622
   C       -3.32318         3.78877        -0.32038
   O       -3.36225         3.94907        -1.51425
   C       -4.39484         3.17504         0.56864
   C       -3.94873         3.19170         1.86173
   C       -5.63715         2.66299         0.12195
   C       -6.05377         2.64350        -1.17054
   C       -7.30087         2.09358        -1.56231
   O       -8.14610         1.56346        -0.65451
   C       -9.24125         1.09919        -1.30327
   C       -9.10898         1.33350        -2.66229
   C       -7.87143         1.96948        -2.82921
   C       -7.27349         2.42593        -4.11003
   F       -7.04069         3.75153        -4.13045
   F       -6.09136         1.83709        -4.37004
   F       -8.06649         2.16386        -5.15872
   C      -10.29734         0.47815        -0.58575
   C      -10.29167         0.34248         0.76399
   C      -11.30379        -0.27829         1.53445
   S      -11.13291        -0.30717         3.28368
   C      -12.60718        -1.15498         3.44189
   C      -13.19899        -1.40492         2.20177
   C      -12.47276        -0.91271         1.12733
   C      -14.45562        -2.14691         2.45056
   O      -15.25310        -2.54504         1.63971
   C      -14.51123        -2.28787         3.95794
   C      -13.40007        -1.68349         4.49565
   C      -15.53607        -2.93440         4.68476
   C      -16.60999        -3.55998         4.13244
   C      -17.60768        -4.19289         4.91370
   O      -17.55647        -4.17962         6.26132
   C      -18.62863        -4.85235         6.74482
   C      -19.39609        -5.31796         5.68815
   C      -18.74662        -4.89797         4.52074
   C      -19.18411        -5.15126         3.12405
   F      -18.24230        -5.76977         2.38880
   F      -20.27720        -5.92638         3.07082
   F      -19.48859        -4.01909         2.46221
   C      -18.77554        -4.95109         8.15341
   C      -19.79411        -5.59270         8.77589
   C      -19.95110        -5.68396        10.18182
   S      -21.32952        -6.56259        10.82822
   C      -20.83340        -6.22361        12.42434
   C      -19.66320        -5.47074        12.45713
   C      -19.16064        -5.16383        11.19954
   C      -19.32658        -5.23242        13.88112
   O      -18.38628        -4.62098        14.32216
   C      -20.43136        -5.93144        14.64629
   C      -21.29129        -6.49862        13.75291
   C      -20.54773        -5.98288        16.07516
   C      -19.69633        -5.41662        16.93265
   H        0.54329         5.15667         2.12600
   H       -0.45862         5.06161        -0.30008
   H       -4.47911         2.82803         2.72327
   H       -6.28695         2.25238         0.88577
   H       -5.43077         3.04631        -1.95385
   H       -9.80901         1.08071        -3.43162
   H      -11.11792         0.11420        -1.18357
   H       -9.44875         0.73848         1.31406
   H      -12.76588        -1.00885         0.09860
   H      -13.15994        -1.61950         5.54161
   H      -15.43791        -2.92536         5.76379
   H      -16.73294        -3.59520         3.06120
   H      -20.30256        -5.88392         5.74140
   H      -18.00116        -4.46471         8.72742
   H      -20.55575        -6.07619         8.18071
   H      -18.26899        -4.59142        11.02502
   H      -22.17465        -7.06335        13.99142
   H      -21.40695        -6.53187        16.44353
   H      -18.83733        -4.86531        16.59330
   H      -19.84243        -5.49135        17.99645
*
