# ORCA input file
# SCF done       -133.062721339305          0.000653793494
! CAM-B3LYP def2-SVP def2/J RIJCOSX Grid4 TightSCF
%maxcore 5000
%tddft
    Mode sTDDFT
    Ethresh 5.0
    maxcore 5000
end

%pal
  nprocs 6
  end
* xyz 0 1
   C       -1.09636        -5.54592        -0.48846
   S       -1.02704        -4.66887         1.00159
   C       -2.51942        -3.91531         0.64157
   C       -3.03221        -4.33585        -0.57939
   C       -2.21183        -5.27305        -1.22615
   C       -4.30669        -3.63092        -0.78653
   O       -5.07994        -3.69736        -1.71005
   C       -4.46364        -2.76214         0.45107
   C       -3.38384        -2.96204         1.26759
   C       -5.59729        -1.93165         0.59526
   C       -5.84633        -1.10436         1.64449
   C       -6.99294        -0.28826         1.75375
   S       -8.25260        -0.25010         0.54790
   C       -9.17202         0.92626         1.44832
   C       -8.51467         1.26636         2.63076
   C       -7.28843         0.58089         2.80224
   C       -6.44449         0.74700         3.91150
   N       -5.74315         0.86951         4.81129
   C       -9.02978         2.19354         3.54923
   N       -9.46267         2.95376         4.29163
   C      -10.41320         1.43627         1.01249
   C      -11.02541         1.05511        -0.14156
   C      -12.27025         1.53084        -0.59977
   S      -12.92635         0.88325        -2.10322
   C      -14.32070         1.85726        -1.94735
   C      -14.27558         2.65125        -0.79063
   C      -13.12954         2.46990        -0.03484
   C      -15.51763         3.44042        -0.75983
   O      -15.88661         4.25717         0.04893
   C      -16.27397         3.00535        -1.99862
   C      -15.51713         2.06841        -2.67204
   C      -17.53773         3.55202        -2.27066
   C      -18.34087         3.20015        -3.32062
   C      -19.61239         3.71943        -3.59999
   S      -20.49839         3.02584        -4.95343
   C      -21.88208         4.04600        -4.70800
   C      -21.63970         4.88134        -3.63112
   C      -20.38343         4.71916        -2.99654
   C      -20.23788         5.62728        -1.91337
   C      -21.32133         6.42371        -1.73693
   C      -21.51515         7.47811        -0.71094
   S      -22.60348         6.11420        -2.89607
   C      -23.06687         4.02196        -5.48302
   O      -24.03156         4.91433        -5.14030
   C      -25.06318         4.72830        -5.97864
   C      -24.80295         3.73453        -6.86495
   C      -23.49693         3.24910        -6.56527
   C      -22.77686         2.19899        -7.21615
   C      -23.24482         1.46793        -8.24543
   C      -22.49091         0.41652        -8.86851
   C      -22.94734        -0.31580        -9.88419
   H       -0.29526        -6.21714        -0.72660
   H       -2.42615        -5.72175        -2.17854
   H       -3.19464        -2.49775         2.21771
   H       -6.30918        -1.98124        -0.22094
   H       -5.14498        -1.03818         2.46602
   H      -10.87530         2.16419         1.66502
   H      -10.53403         0.32041        -0.76802
   H      -12.91713         2.98632         0.88303
   H      -15.77470         1.57251        -3.58928
   H      -17.87286         4.29048        -1.55802
   H      -17.99139         2.43826        -4.00502
   H      -19.36753         5.69733        -1.28827
   H      -21.67995         8.44540        -1.18487
   H      -20.64081         7.54398        -0.06857
   H      -22.38878         7.25755        -0.09846
   H      -25.91786         5.36127        -5.84294
   H      -25.45438         3.38590        -7.63855
   H      -21.78604         1.99130        -6.83496
   H      -24.23223         1.65495        -8.64374
   H      -21.50179         0.23334        -8.46862
   H      -23.92760        -0.15201       -10.30097
   H      -22.36027        -1.09797       -10.33277
*
