# ORCA input file
# SCF done       -148.006198713090          0.000980887342
! CAM-B3LYP def2-SVP def2/J RIJCOSX Grid4 TightSCF
%maxcore 5000
%tddft
    Mode sTDDFT
    Ethresh 5.0
    maxcore 5000
end

%pal
  nprocs 6
  end
* xyz 0 1
   C        6.03592        -3.11484         0.92058
   C        4.72869        -3.31216         1.35448
   N        4.41077        -4.33777         2.11530
   C        5.37287        -5.17270         2.51312
   C        6.70451        -4.90704         2.13561
   N        7.00720        -3.90931         1.34016
   C        5.02521        -6.31816         3.31422
   C        5.66827        -7.52175         3.32553
   C        4.88783        -8.44657         4.11300
   C        5.26488        -9.76445         4.39965
   N        5.57744       -10.84460         4.63190
   C        3.73267        -7.82121         4.52100
   C        3.78094        -6.46337         4.08260
   C        2.89194        -5.45397         4.38751
   C        1.46184        -5.60923         4.75228
   C        1.00183        -4.35817         5.11765
   C        2.07315        -3.42366         4.99243
   C        3.20250        -4.07500         4.52803
   C        1.98777        -2.05712         5.29440
   N        1.91983        -0.93731         5.53664
   C        0.72262        -6.79379         4.57855
   C       -0.57377        -6.97013         4.99316
   C       -1.31655        -8.14677         4.79433
   C       -0.87148        -9.36628         4.31545
   C       -1.92067       -10.31482         4.44924
   C       -1.85535       -11.65175         4.03329
   N       -1.80536       -12.74722         3.69452
   C       -3.02209        -9.70892         5.04494
   C       -2.72280        -8.34477         5.24203
   C       -3.60765        -7.36027         5.65404
   C       -4.83947        -7.56817         6.45627
   C       -5.51554        -6.36306         6.47858
   C       -4.76454        -5.40836         5.73575
   C       -3.59664        -5.99955         5.27172
   C       -5.15520        -4.08225         5.50663
   N       -5.47498        -2.99592         5.31875
   C       -5.13411        -8.74209         7.17795
   C       -6.30478        -8.96465         7.85229
   C       -6.60204       -10.14874         8.55851
   C       -5.94180       -11.35710         8.50579
   C       -6.70876       -12.32812         9.22202
   C       -6.33277       -13.66719         9.40387
   N       -6.02519       -14.76246         9.55352
   C       -7.86529       -11.74377         9.70177
   C       -7.83189       -10.36113         9.37046
   C       -8.68587        -9.39349         9.84759
   C      -10.03384        -9.60814        10.41171
   C      -10.45058        -8.42006        10.93802
   C       -9.40790        -7.43594        10.74467
   C       -8.37130        -8.01000        10.05419
   C       -9.46967        -6.11458        11.20556
   N       -9.52545        -5.03162        11.58231
   C      -10.80184       -10.80961        10.26935
   C      -11.87212       -11.11304        11.02772
   C      -12.68571       -12.29802        10.90427
   C      -12.47208       -13.33462         9.97643
   N      -13.25815       -14.38623         9.91905
   C      -14.27268       -14.46218        10.76543
   C      -14.49424       -13.45031        11.69490
   N      -13.71258       -12.39434        11.75502
   H        6.30967        -2.32230         0.24096
   H        3.92050        -2.65295         1.07136
   H        7.52467        -5.50450         2.50703
   H        6.57110        -7.78592         2.80740
   H        3.00365        -8.23549         5.19144
   H        0.00553        -4.09133         5.41605
   H        4.17317        -3.63207         4.42592
   H        1.21157        -7.60229         4.05552
   H       -1.05118        -6.16955         5.53826
   H        0.10263        -9.59938         3.92996
   H       -3.97729       -10.17687         5.18697
   H       -6.43152        -6.13805         6.99100
   H       -2.89085        -5.52998         4.61370
   H       -4.36396        -9.49805         7.22041
   H       -7.07462        -8.20840         7.81326
   H       -5.02991       -11.58219         7.98623
   H       -8.58438       -12.22305        10.33763
   H      -11.40092        -8.20398        11.38786
   H       -7.43044        -7.54120         9.83924
   H      -10.48691       -11.48288         9.48426
   H      -12.18019       -10.45127        11.82469
   H      -11.65449       -13.31739         9.27009
   H      -14.90295       -15.33616        10.69504
   H      -15.31173       -13.48797        12.40140
*
