# ORCA input file
# SCF done       -178.792156183761          0.000601445526
! CAM-B3LYP def2-SVP def2/J RIJCOSX Grid4 TightSCF
%maxcore 5000
%tddft
    Mode sTDDFT
    Ethresh 5.0
    maxcore 5000
end

%pal
  nprocs 6
  end
* xyz 0 1
   C        0.57339         3.70007         3.39213
   C        1.01361         4.83393         4.02724
   C        2.33772         5.02607         4.47656
   N        3.39034         5.25405         4.87435
   C        0.25233         5.98432         4.32222
   N       -0.27772         6.96634         4.59683
   C        1.41222         2.55597         3.05794
   C        0.62785         1.60796         2.35696
   C        1.13544         0.41829         1.89324
   C        2.48626         0.14952         2.13131
   C        3.26386         1.10058         2.83520
   C        2.74905         2.30281         3.30492
   S        4.90378         0.56137         3.01524
   C        4.54228        -0.90011         2.16354
   C        3.25590        -0.98884         1.76060
   C       -0.75096         2.10653         2.22520
   O       -1.66755         1.51731         1.69170
   C       -0.76935         3.42847         2.89850
   C       -1.83680         4.25822         3.10716
   C       -3.17464         4.19543         2.67019
   C       -3.85939         3.34312         1.81165
   C       -5.19003         3.70793         1.66127
   C       -5.54064         4.85151         2.41445
   S       -4.22979         5.47787         3.29148
   C       -6.91323         5.12312         2.20618
   C       -7.43728         4.16172         1.32419
   C       -6.37017         3.24671         0.94443
   C       -6.46067         2.19161         0.08717
   C       -5.36133         1.37164        -0.25179
   N       -4.49416         0.69011        -0.56289
   C       -7.67013         1.83888        -0.55166
   N       -8.64098         1.53293        -1.07882
   C       -8.79643         4.34682         1.06798
   C       -9.30649         5.43733         1.74791
   S       -8.08798         6.25147         2.71480
   C      -10.65766         5.90996         1.74675
   C      -11.08279         7.00943         2.46783
   C      -12.41425         7.45059         2.50333
   C      -13.43449         6.82694         1.81707
   C      -13.04507         5.69682         1.04578
   C      -11.67380         5.24570         1.00506
   N      -11.63203         4.19527         0.21027
   O      -12.87377         4.00047        -0.21891
   N      -13.73792         4.88617         0.26794
   C      -14.82787         7.21727         1.87628
   C      -15.87208         6.40136         1.51272
   O      -17.04866         7.00961         1.68738
   C      -16.79506         8.24084         2.13834
   C      -15.44878         8.45306         2.28277
   C      -14.87458         9.71419         2.79519
   O      -13.94650         9.76236         3.58700
   C      -15.52492        10.92524         2.33211
   C      -16.39401        11.15661         1.28638
   C      -16.77175        12.49120         1.17073
   C      -16.19068        13.30901         2.12556
   S      -15.14275        12.40059         3.16460
   C      -16.37012        14.71720         2.31404
   C      -17.35520        15.43723         1.69059
   C      -17.57285        16.80878         1.85818
   C      -16.71976        17.60335         2.75518
   C      -15.69382        17.09814         3.47252
   S      -15.22738        15.44919         3.43787
   C      -17.23217        18.92349         2.67896
   C      -18.32740        18.96137         1.80872
   C      -18.84971        20.27144         1.69461
   C      -18.16492        21.15842         2.46136
   S      -16.85735        20.45814         3.35363
   C      -18.55166        17.63640         1.29480
   C      -19.57045        17.20003         0.38321
   C      -20.61395        17.91312        -0.04149
   H        0.50702        -0.27918         1.36151
   H        3.38499         2.99033         3.83651
   H        5.32928        -1.61373         2.01490
   H        2.85044        -1.82383         1.21849
   H       -1.64273         5.13085         3.71975
   H       -3.38524         2.49986         1.34164
   H       -9.40759         3.73530         0.42939
   H      -10.35718         7.55777         3.05161
   H      -12.64293         8.30601         3.11922
   H      -15.86968         5.39901         1.13489
   H      -17.63398         8.86728         2.37024
   H      -16.72417        10.38735         0.61199
   H      -17.43413        12.84955         0.40403
   H      -18.01914        14.89396         1.03396
   H      -15.08840        17.70525         4.12722
   H      -19.67870        20.56389         1.07744
   H      -18.34501        22.21073         2.56510
   H      -19.46388        16.18162         0.03073
   H      -20.79751        18.91974         0.28580
   H      -21.33270        17.49597        -0.72540
*
