# ORCA input file
# SCF done       -159.394203175670          0.000841768374
! CAM-B3LYP def2-SVP def2/J RIJCOSX Grid4 TightSCF
%maxcore 5000
%tddft
    Mode sTDDFT
    Ethresh 5.0
    maxcore 5000
end

%pal
  nprocs 6
  end
* xyz 0 1
   C       -4.78033         2.93350        -2.78875
   C       -4.93861         3.01569        -4.16383
   C       -5.53928         1.98844        -4.87915
   C       -6.00805         0.85132        -4.23855
   C       -5.85794         0.75798        -2.86472
   C       -5.23616         1.79850        -2.13543
   C       -5.19153         1.42789        -0.72853
   C       -4.82229         2.22975         0.31409
   C       -4.39863         3.56934         0.16792
   N       -4.04570         4.65953         0.11540
   C       -4.86012         1.85406         1.67539
   N       -4.87715         1.61557         2.79768
   C       -5.63364         0.03436        -0.65264
   C       -6.27732        -0.27444        -1.92977
   C       -7.26887        -1.18723        -2.13762
   C       -7.86872        -1.94937        -1.11009
   N       -8.45164        -2.52196        -0.30454
   C       -7.89597        -1.39307        -3.38553
   N       -8.42877        -1.60766        -4.37829
   C       -5.30119        -0.81462         0.35776
   C       -5.36507        -2.22826         0.34168
   N       -5.57682        -2.98209        -0.70297
   C       -5.52886        -4.26761        -0.38503
   C       -5.26395        -4.56576         0.97356
   S       -5.05899        -3.11648         1.85582
   N       -5.22851        -5.85497         1.29219
   C       -5.45778        -6.59154         0.24307
   S       -5.74187        -5.71884        -1.27534
   C       -5.48971        -8.00423         0.25926
   N       -5.71747        -8.73700        -0.79345
   C       -5.69015       -10.02781        -0.47947
   C       -5.42766       -10.33224         0.87760
   S       -5.21127        -8.88464         1.77391
   N       -5.40141       -11.62300         1.19182
   C       -5.63288       -12.35566         0.13978
   S       -5.91073       -11.47532        -1.37493
   C       -5.67420       -13.76809         0.15812
   N       -5.93692       -14.50403        -0.88349
   C       -5.90968       -15.79291        -0.56276
   C       -5.61364       -16.09162         0.78927
   S       -5.36211       -14.64117         1.67083
   N       -5.57586       -17.37689         1.10945
   C       -5.82867       -18.12974         0.07313
   S       -6.16164       -17.24109        -1.43457
   C       -5.91998       -19.54219         0.06685
   C       -5.55266       -20.39129         1.06508
   C       -6.02126       -21.77336         1.17972
   C       -6.48134       -22.57129         0.17057
   C       -6.52935       -22.20547        -1.19304
   N       -6.58700       -21.97537        -2.31572
   C       -6.92873       -23.89842         0.35500
   N       -7.30568       -24.97857         0.43886
   C       -5.89273       -22.13749         2.58325
   C       -5.20330       -21.10674         3.26395
   C       -4.96521       -21.19649         4.62559
   C       -5.41406       -22.32038         5.30267
   C       -6.08167       -23.33810         4.63462
   C       -6.32821       -23.25928         3.27239
   C       -4.82513       -20.08772         2.29763
   C       -3.80541       -19.19284         2.43647
   C       -3.09444       -18.99368         3.63972
   N       -2.49257       -18.78555         4.59362
   C       -3.26092       -18.44332         1.36980
   N       -2.72476       -17.87807         0.52761
   H       -4.30522         3.73674        -2.24986
   H       -4.58395         3.89202        -4.68421
   H       -5.64314         2.07326        -5.94994
   H       -6.46586         0.05623        -4.80430
   H       -4.86241        -0.40222         1.25565
   H       -6.41111       -19.95034        -0.80544
   H       -4.45489       -20.40841         5.15504
   H       -5.24162       -22.40231         6.36480
   H       -6.41943       -24.20427         5.18253
   H       -6.85415       -24.05514         2.77113
*
