# ORCA input file
# SCF done       -188.989981042795          0.000813935950
! CAM-B3LYP def2-SVP def2/J RIJCOSX Grid4 TightSCF
%maxcore 5000
%tddft
    Mode sTDDFT
    Ethresh 5.0
    maxcore 5000
end

%pal
  nprocs 6
  end
* xyz 0 1
   C        3.44866        -2.33889        -1.47803
   C        2.72257        -2.19187        -0.33471
   C        2.31496        -0.85641        -0.15672
   C        2.75460        -0.02140        -1.19050
   S        3.65742        -0.86731        -2.36625
   C        2.29887         1.30411        -0.93280
   C        1.57112         1.29326         0.26772
   C        1.55749        -0.06362         0.79610
   C        0.95820        -0.49289         1.94395
   C        0.24407         0.37852         2.79346
   N       -0.33916         1.07643         3.49172
   C        1.01131        -1.83990         2.35983
   N        1.05227        -2.93352         2.70216
   C        1.07606         2.54907         0.61155
   C        1.42123         3.51555        -0.31628
   S        2.37648         2.84942        -1.63526
   C        1.07314         4.90501        -0.27179
   C        1.46003         5.82320        -1.23778
   F        2.19778         5.41453        -2.28717
   C        1.11114         7.18378        -1.20560
   F        1.50973         7.94450        -2.23395
   C        0.34170         7.73272        -0.20219
   C       -0.07111         6.84282         0.81435
   C        0.28621         5.44891         0.78528
   N       -0.19918         4.80207         1.84222
   S       -1.00347         5.83287         2.77261
   N       -0.78192         7.15620         1.89582
   C       -0.06043         9.13631        -0.18306
   C        0.82921        10.18004        -0.32110
   F        2.13962         9.93110        -0.44111
   C        0.42907        11.52715        -0.29668
   F        1.40019        12.44824        -0.43125
   C       -0.88722        11.93719        -0.13944
   C       -1.82844        10.87799         0.01250
   C       -1.41504         9.49965        -0.01120
   N       -2.44576         8.66550         0.11193
   S       -3.79059         9.52069         0.27224
   N       -3.14520        10.98689         0.17352
   C       -1.29183        13.31328        -0.14439
   C       -2.58894        13.78748        -0.04659
   C       -2.64437        15.17662        -0.11729
   C       -1.37447        15.76552        -0.26232
   S       -0.12246        14.61287        -0.31406
   C       -1.53807        17.17077        -0.34394
   C       -2.91539        17.46962        -0.26200
   C       -3.65127        16.22612        -0.09307
   C       -4.99529        16.07098         0.07373
   C       -5.89136        17.16078         0.13438
   N       -6.63680        18.02794         0.21288
   C       -5.58903        14.79893         0.22422
   N       -6.08143        13.77087         0.34629
   C       -3.18775        18.82651        -0.38519
   C       -2.03244        19.57712        -0.55415
   S       -0.58351        18.56355        -0.52721
   C       -1.82496        20.96660        -0.69101
   C       -2.70584        21.94063        -1.06539
   C       -2.39383        23.36010        -1.09418
   C       -1.36416        23.97802        -0.43295
   C       -1.11848        25.36643        -0.47678
   N       -0.86218        26.48546        -0.47998
   C       -0.43850        23.33035         0.41216
   N        0.33449        22.87621         1.13005
   C       -3.42489        24.02755        -1.87525
   C       -4.40397        23.07070        -2.24205
   C       -4.02434        21.74549        -1.72292
   O       -4.64399        20.71434        -1.87189
   C       -5.51425        23.39438        -2.98429
   C       -5.66408        24.72450        -3.38737
   C       -4.67760        25.67263        -3.02183
   C       -3.55651        25.34620        -2.26815
   S       -5.06271        27.24869        -3.63700
   C       -6.51062        26.63931        -4.36056
   C       -6.70436        25.31803        -4.15619
   H        3.88536        -3.23727        -1.86619
   H        2.49632        -2.99944         0.33714
   H        0.49293         2.77703         1.48417
   H       -3.43041        13.12912         0.06350
   H       -4.16845        19.26306        -0.35903
   H       -0.80250        21.27523        -0.50422
   H       -6.24315        22.64250        -3.24402
   H       -2.83038        26.10225        -2.02008
   H       -7.13700        27.31987        -4.90386
   H       -7.54842        24.76784        -4.53075
*
