# ORCA input file
# SCF done       -168.889029624022          0.000821831418
! CAM-B3LYP def2-SVP def2/J RIJCOSX Grid4 TightSCF
%maxcore 5000
%tddft
    Mode sTDDFT
    Ethresh 5.0
    maxcore 5000
end

%pal
  nprocs 6
  end
* xyz 0 1
   C       -5.56443        -6.60677        -0.77369
   C       -4.23898        -6.30311        -0.79662
   C       -4.02003        -4.92602        -0.59474
   C       -5.22375        -4.21367        -0.42059
   S       -6.59480        -5.23362        -0.50660
   C       -4.92214        -2.85113        -0.22094
   C       -3.51865        -2.69557        -0.26931
   C       -2.91528        -4.00634        -0.50810
   C       -1.57873        -4.28143        -0.61940
   C       -0.59034        -3.28357        -0.51649
   N        0.22465        -2.47912        -0.43751
   C       -1.10098        -5.58729        -0.84536
   N       -0.70591        -6.64881        -1.02964
   C       -3.09997        -1.39417        -0.07573
   C       -4.17108        -0.51547         0.12988
   S       -5.72194        -1.36679         0.06577
   C       -4.18180         0.85498         0.38322
   C       -3.10546         1.71644         0.49708
   C       -3.19840         3.08831         0.80575
   C       -1.99082         3.73008         0.89260
   C       -0.89190         2.89527         0.64581
   S       -1.42243         1.27245         0.30050
   C        0.46629         3.22461         0.66586
   C        1.05399         4.44835         1.00219
   C        2.42909         4.42923         0.94833
   C        2.96536         3.19855         0.55722
   S        1.68847         2.04694         0.26282
   C        4.32048         2.88085         0.41247
   C        4.79146         1.67565        -0.03648
   C        6.14525         1.34736        -0.16434
   C        6.67459         0.15862        -0.67420
   C        8.05043         0.11336        -0.67367
   C        8.64650         1.26478        -0.14913
   S        7.43253         2.42055         0.32781
   C       10.00852         1.52670         0.03003
   C       11.09706         0.72201        -0.33206
   C       12.31163         1.25817         0.00957
   C       12.22669         2.50356         0.66153
   S       10.55591         2.98765         0.81331
   C       13.29566         3.24317         1.13807
   C       13.24498         4.45576         1.81866
   C       14.35357         5.14933         2.31813
   C       14.03950         6.30445         3.00719
   S       15.21234         7.42602         3.65533
   C       16.75398         6.88145         2.86660
   C       12.64716         6.56169         3.05959
   S       11.77805         5.31414         2.18608
   C       11.90430         7.62133         3.55662
   C       12.24824         8.60020         4.48340
   C       11.67006         9.92728         4.49543
   C       10.69008        10.42124         3.66669
   C       10.04299         9.71829         2.63158
   N        9.47617         9.23484         1.75580
   C       10.17778        11.73186         3.74055
   N        9.69928        12.77652         3.74430
   C       12.37626        10.69384         5.51669
   C       13.31508         9.84697         6.14461
   C       14.14901        10.33213         7.13576
   C       14.03824        11.66649         7.50232
   C       13.10764        12.49584         6.89711
   C       12.26829        12.02013         5.89908
   C       13.17544         8.51059         5.57967
   C       13.66432         7.35654         6.15355
   C       14.55061         7.32996         7.24611
   N       15.29102         7.22776         8.11893
   C       13.27718         6.05552         5.78672
   N       12.97613         4.97031         5.55737
   H       -6.02138        -7.56808        -0.89808
   H       -3.46254        -7.03035        -0.94963
   H       -2.07373        -1.07889        -0.07597
   H       -5.15653         1.30521         0.52408
   H       -4.14936         3.56594         0.96230
   H       -1.87853         4.77402         1.12249
   H        0.47449         5.30893         1.28321
   H        3.05428         5.27354         1.17866
   H        5.02977         3.65691         0.67168
   H        4.08053         0.91039        -0.32292
   H        6.04404        -0.63638        -1.03098
   H        8.62510        -0.72296        -1.02786
   H       10.97460        -0.22220        -0.83105
   H       13.25851         0.78658        -0.18480
   H       14.28015         2.82049         0.98315
   H       15.35041         4.77422         2.17744
   H       17.49087         7.63725         3.12078
   H       16.62296         6.83372         1.78998
   H       17.05853         5.92207         3.27400
   H       10.92173         7.71281         3.11003
   H       14.87956         9.69863         7.61156
   H       14.68707        12.05986         8.27026
   H       13.03293        13.52895         7.20125
   H       11.55177        12.68081         5.43965
*
