# ORCA input file
# SCF done       -176.383597146896          0.000446753581
! CAM-B3LYP def2-SVP def2/J RIJCOSX Grid4 TightSCF
%maxcore 5000
%tddft
    Mode sTDDFT
    Ethresh 5.0
    maxcore 5000
end

%pal
  nprocs 6
  end
* xyz 0 1
   C       15.06939        -3.03243         2.38961
   C       13.82975        -2.69011         1.95097
   C       13.51248        -1.35826         2.28848
   C       14.55665        -0.71619         2.98217
   S       15.89554        -1.74957         3.22383
   C       14.17180         0.61843         3.25670
   C       12.88830         0.82034         2.71901
   C       12.43033        -0.42667         2.10655
   C       11.21050        -0.64590         1.52500
   C       10.25320         0.37102         1.32930
   N        9.46056         1.17882         1.13886
   C       10.79032        -1.91544         1.09328
   N       10.39262        -2.94332         0.76824
   C       12.38635         2.09024         2.93859
   C       13.27191         2.90270         3.65076
   S       14.75764         2.02611         4.03919
   C       13.13755         4.23694         4.06495
   C       12.06247         5.06562         3.82633
   C       11.91887         6.42168         4.21283
   C       10.75436         7.01302         3.80562
   C        9.91188         6.15668         3.07289
   S       10.63647         4.57081         2.94526
   C        8.69993         6.33242         2.42342
   C        7.83520         7.43485         2.27099
   C        6.76227         7.17980         1.46435
   C        6.71981         5.86673         0.92511
   S        8.09359         4.96322         1.52459
   C        5.75893         5.32514         0.10436
   C        5.76565         4.01782        -0.44136
   C        6.86713         3.22275        -0.54708
   C        6.80731         1.88729        -1.03096
   C        5.64280         1.25951        -1.25083
   C        4.33368         1.97307        -1.00546
   C        4.47480         3.50946        -1.06960
   N        4.45705         4.02911        -2.42222
   C        3.91260         3.34404        -3.32291
   C        3.22876         2.06934        -3.03572
   N        3.35590         1.46170        -1.94265
   F        2.38793         1.59195        -3.95183
   F        3.90048         3.78847        -4.57559
   C        5.61562        -0.15609        -1.73988
   C        4.57910        -1.03908        -1.11900
   N        4.04750        -0.86639         0.06782
   S        2.97909        -2.05879         0.35117
   N        3.18779        -2.84122        -1.05749
   C        4.07608        -2.19637        -1.77531
   C        4.55771        -2.64182        -3.12701
   C        4.92142        -1.39975        -3.87434
   C        5.40731        -0.23530        -3.22498
   N        5.63137         0.75112        -4.06336
   S        5.27130         0.26000        -5.57126
   N        4.80956        -1.24433        -5.17304
   C        5.76146        -3.51686        -2.91558
   C        7.05796        -3.12189        -2.74183
   C        7.90026        -4.20420        -2.43430
   C        7.22056        -5.42162        -2.40002
   S        5.55124        -5.23845        -2.71553
   C        8.16428        -6.45171        -2.09101
   C        9.42170        -5.86704        -1.92148
   C        9.29851        -4.43110        -2.10473
   C       10.25986        -3.47843        -1.93148
   C       11.59072        -3.78694        -1.58029
   N       12.68129        -4.01888        -1.31072
   C        9.96269        -2.10456        -2.04172
   N        9.71106        -0.98676        -2.10678
   C       10.41644        -6.81060        -1.60134
   C        9.90282        -8.06998        -1.54145
   S        8.20186        -8.14207        -1.86580
   H       15.57285        -3.97129         2.27622
   H       13.18661        -3.35384         1.40175
   H       11.42141         2.40738         2.59684
   H       13.96544         4.65787         4.62023
   H       12.68710         6.92616         4.77258
   H       10.49329         8.03729         4.00544
   H        8.02058         8.37780         2.75457
   H        6.00155         7.90335         1.22812
   H        4.90025         5.94597        -0.11512
   H        7.84692         3.58774        -0.29449
   H        7.74215         1.36776        -1.17751
   H        3.97940         1.66890        -0.01022
   H        3.61769         3.97149        -0.56005
   H        6.60190        -0.58918        -1.51437
   H        3.77753        -3.20082        -3.64961
   H        7.39881        -2.11010        -2.85620
   H       11.45015        -6.57579        -1.42501
   H       10.42017        -8.98272        -1.32356
*
