# ORCA input file
# SCF done       -194.854070275473          0.000288991726
! CAM-B3LYP def2-SVP def2/J RIJCOSX Grid4 TightSCF
%maxcore 5000
%tddft
    Mode sTDDFT
    Ethresh 5.0
    maxcore 5000
end

%pal
  nprocs 6
  end
* xyz 0 1
   C        0.51093         3.36633         3.83848
   C       -0.67128         4.05760         3.65800
   C       -1.94503         3.52417         3.89937
   N       -3.02335         3.12033         3.93752
   C       -0.72305         5.39003         3.23304
   N       -0.80222         6.48471         2.88714
   C        0.64478         2.19902         4.70541
   C        2.03077         1.97579         4.94588
   C        2.46068         1.00888         5.80606
   C        1.50755         0.20096         6.46987
   C        0.12183         0.40302         6.21385
   C       -0.29342         1.41828         5.32039
   C       -0.81704        -0.40892         6.87888
   C       -0.41122        -1.36633         7.76804
   C        0.95266        -1.56022         8.02505
   C        1.89183        -0.79591         7.38661
   C        2.81234         2.94675         4.15587
   O        4.02069         3.06196         4.10648
   C        1.81611         3.74241         3.39541
   C        2.28314         4.58816         2.40787
   C        1.64990         5.27125         1.36704
   C        0.40523         4.97492         0.81137
   C       -0.13314         5.95478        -0.07577
   O       -1.36426         5.79507        -0.62897
   C       -2.16254         4.82701         0.02033
   C       -1.35694         3.55400         0.24579
   O       -0.23748         3.81947         1.07056
   C        0.68220         7.04167        -0.36907
  Si        2.34140         6.76518         0.46522
   C        2.80584         8.16986         1.61055
   C        3.72164         6.31335        -0.72215
   C        0.25078         8.23066        -0.97996
   C       -1.00643         8.79716        -0.89011
   C       -1.39479        10.06876        -1.37511
   C       -2.61376        10.49937        -0.92777
   C       -3.23536         9.59286        -0.05022
   S       -2.27754         8.14167         0.10969
   C       -4.38923         9.71663         0.71460
   C       -5.31700        10.76540         0.83345
   C       -6.27301        10.54530         1.79036
   C       -6.13370         9.32518         2.48538
   S       -4.78975         8.42917         1.82716
   C       -6.88643         8.86651         3.55052
   C       -6.60404         7.73251         4.31788
   C       -7.47746         7.32198         5.32835
   C       -7.06701         6.21082         6.12858
   O       -7.92491         5.56351         6.93079
   C       -9.25535         6.03395         6.88284
   C       -9.26419         7.55470         6.77737
   O       -8.65667         7.95303         5.56358
   C       -5.75608         5.79313         5.92242
  Si       -5.11185         6.58059         4.34050
   C       -5.18287         5.29197         2.97953
   C       -3.43949         7.35506         4.65441
   C       -4.97788         4.93493         6.69772
   C       -5.05511         4.61917         8.03913
   C       -4.19200         3.66537         8.68848
   C       -2.95630         3.23415         8.25478
   C       -2.20178         2.23338         8.89278
   N       -1.55251         1.39990         9.34672
   C       -2.23214         3.81908         7.20295
   N       -1.53832         4.29979         6.42037
   C       -4.79356         3.32491         9.97464
   C       -5.87077         4.22639        10.20693
   C       -6.00303         5.13209         9.04168
   O       -6.69593         6.13118         8.98908
   C       -6.59913         4.19017        11.35782
   C       -6.29283         3.21762        12.33935
   C       -5.22618         2.30451        12.10629
   C       -4.47618         2.37740        10.90820
   C       -4.93005         1.34133        13.09098
   C       -5.64961         1.28211        14.25362
   C       -6.69909         2.18272        14.48302
   C       -7.01377         3.12914        13.54527
   H        3.51534         0.86641         5.99118
   H       -1.34973         1.55591         5.14935
   H       -1.86760        -0.25321         6.68035
   H       -1.14055        -1.97399         8.28208
   H        1.25726        -2.31698         8.73297
   H        2.94487        -0.94170         7.58087
   H        3.35789         4.74189         2.46601
   H       -2.50839         5.22194         0.98486
   H       -3.01791         4.64485        -0.63129
   H       -1.01108         3.15709        -0.71809
   H       -1.94790         2.79730         0.76500
   H        1.99793         8.39803         2.30406
   H        3.03425         9.08619         1.06955
   H        3.68211         7.92989         2.20997
   H        3.43695         5.51578        -1.40598
   H        4.60734         5.97426        -0.18884
   H        4.02588         7.16294        -1.33007
   H        1.01535         8.84501        -1.43988
   H       -0.75420        10.63790        -2.02629
   H       -3.05701        11.44439        -1.18748
   H       -5.25775        11.65318         0.22918
   H       -7.05570        11.24307         2.03232
   H       -7.75084         9.45880         3.82621
   H       -9.76794         5.60002         6.01248
   H       -9.73551         5.69452         7.80165
   H       -8.70757         7.96980         7.62764
   H      -10.27973         7.95209         6.76162
   H       -6.19467         4.92441         2.81351
   H       -4.56937         4.42920         3.23763
   H       -4.81751         5.67213         2.02905
   H       -3.51279         8.29441         5.20122
   H       -2.88089         7.55467         3.74313
   H       -2.81769         6.68977         5.25326
   H       -4.14608         4.49788         6.15690
   H       -7.40279         4.89262        11.52388
   H       -3.66939         1.67678        10.75925
   H       -4.11818         0.65178        12.91010
   H       -5.41254         0.54156        15.00316
   H       -7.25695         2.12422        15.40601
   H       -7.82149         3.82607        13.71769
*
