# ORCA input file
# SCF done       -161.360089303241          0.000653047757
! CAM-B3LYP def2-SVP def2/J RIJCOSX Grid4 TightSCF
%maxcore 5000
%tddft
    Mode sTDDFT
    Ethresh 5.0
    maxcore 5000
end

%pal
  nprocs 6
  end
* xyz 0 1
   C        0.18984        -1.70310         1.16726
   C       -0.56408        -1.71253         0.00963
   C       -1.95055        -1.73306         0.08393
   N       -2.66120        -1.88763        -1.16162
   O       -2.25266        -1.25645        -2.11301
   O       -3.58431        -2.67225        -1.19216
   C       -2.61879        -1.70071         1.31618
   C       -1.82916        -1.72376         2.46945
   C       -0.45013        -1.72677         2.39837
   C       -4.05924        -1.58243         1.44832
   C       -4.84088        -0.84265         0.64321
   C       -6.25548        -0.70332         0.78278
   S       -7.11866         0.31028        -0.33725
   C       -8.64401        -0.03114         0.42605
   C       -8.45464        -0.89876         1.50380
   C       -7.11413        -1.27185         1.69536
   C       -9.49164        -1.35892         2.33558
   N      -10.29686        -1.75716         3.04770
   C       -9.86753         0.52000        -0.01566
   C       -9.96810         1.36094        -1.07972
   C      -11.19232         1.92383        -1.50831
   N      -11.30490         2.79884        -2.56830
   C      -10.22775         3.30936        -3.38072
   C       -9.45190         4.41677        -2.67144
   C      -12.62884         3.21652        -2.76847
   O      -12.96227         3.99541        -3.64273
   C      -13.38353         2.52112        -1.75064
   C      -12.47292         1.73681        -0.99589
   C      -13.22322         1.03325         0.01752
   O      -12.88824         0.25458         0.88772
   N      -14.55438         1.43480        -0.19607
   C      -15.61618         0.96810         0.66210
   C      -15.99251         2.00443         1.71840
   C      -14.66340         2.32648        -1.23755
   C      -15.89644         2.89970        -1.65349
   C      -15.97052         3.80727        -2.65306
   C      -17.16913         4.45415        -3.12204
   C      -18.43786         4.20043        -2.60317
   C      -19.55576         4.86711        -3.07918
   N      -20.80412         4.56062        -2.43253
   O      -20.87145         3.51391        -1.82046
   O      -21.71720         5.35725        -2.51713
   C      -19.46540         5.82146        -4.11096
   C      -18.18491         6.05953        -4.62873
   C      -17.07401         5.40560        -4.15183
   C      -20.62447         6.49477        -4.65968
   C      -20.60784         7.74835        -5.13583
   C      -21.75598         8.45096        -5.67345
   C      -21.55803         9.61886        -6.40444
   C      -22.62767        10.32270        -6.93873
   N      -22.31702        11.53885        -7.64226
   O      -21.18879        11.65715        -8.07646
   O      -23.18388        12.38046        -7.75419
   C      -23.95150         9.88861        -6.76658
   C      -24.13406         8.72227        -6.01628
   C      -23.07669         8.02561        -5.47680
   C      -25.09928        10.56140        -7.36309
   C      -26.28528        10.65670        -6.77556
   H        1.26667        -1.69360         1.11055
   H       -0.09583        -1.72632        -0.96322
   H       -2.31882        -1.71469         3.43165
   H        0.13174        -1.74099         3.30729
   H       -4.48920        -2.07940         2.30596
   H       -4.40644        -0.28169        -0.17450
   H       -6.80247        -1.93829         2.47906
   H      -10.75231         0.24118         0.54422
   H       -9.07176         1.61931        -1.62821
   H      -10.69583         3.71151        -4.28370
   H       -9.56299         2.48866        -3.66473
   H      -10.11806         5.24306        -2.43575
   H       -8.65916         4.78244        -3.31818
   H       -9.01005         4.05394        -1.74605
   H      -15.23196         0.06985         1.15372
   H      -16.48451         0.69345         0.05665
   H      -15.13152         2.22270         2.34527
   H      -16.78951         1.61595         2.34614
   H      -16.32871         2.93089         1.25750
   H      -16.78439         2.58197        -1.12749
   H      -15.05761         4.09740        -3.15622
   H      -18.58472         3.48684        -1.80731
   H      -18.08110         6.75947        -5.44314
   H      -16.10295         5.61563        -4.57475
   H      -21.55168         5.94147        -4.65346
   H      -19.68750         8.31749        -5.11868
   H      -20.56143        10.00293        -6.56825
   H      -25.13947         8.35745        -5.87324
   H      -23.27389         7.15046        -4.87813
   H      -24.94670        11.01197        -8.33387
   H      -26.46620        10.28107        -5.78216
   H      -27.11008        11.15020        -7.25813
*
