# ORCA input file
# SCF done       -182.010644128700          0.000971533318
! CAM-B3LYP def2-SVP def2/J RIJCOSX Grid4 TightSCF
%maxcore 5000
%tddft
    Mode sTDDFT
    Ethresh 5.0
    maxcore 5000
end

%pal
  nprocs 6
  end
* xyz 0 1
   C        5.01462        -5.46687         7.77339
   O        3.82526        -5.47369         7.95387
   C        6.05893        -5.28053         8.80680
   C        7.31946        -5.14682         8.20011
   C        8.44381        -4.96479         8.99160
   C        8.28706        -4.91813        10.37127
   C        7.02707        -5.04467        10.96419
   C        5.89835        -5.22460        10.17594
  Br        6.84592        -4.97607        12.84195
  Br        9.81991        -4.67882        11.44966
   C        7.16528        -5.23999         6.75117
   C        8.16749        -5.06279         5.83780
   C        9.50494        -4.75931         6.18085
   N       10.60558        -4.51524         6.39208
   C        8.03036        -5.12520         4.43294
   N        8.00507        -5.14733         3.28582
   C        5.76312        -5.53729         6.47980
   C        5.23472        -5.80068         5.25818
   C        3.90691        -6.21449         4.96686
   S        3.30787        -6.13326         3.30035
   C        1.82894        -6.81510         3.94246
   N        1.90373        -7.05302         5.22814
   N        3.02687        -6.72717         5.77443
   C        0.68501        -7.06555         3.13317
   C       -0.47913        -7.50362         3.65499
   C       -1.65397        -7.75955         2.89632
   S       -1.70261        -7.60498         1.12200
   C       -3.33600        -8.06593         1.17345
   C       -3.75435        -8.29774         2.47233
   N       -2.78413        -8.12057         3.39764
   C       -5.06878        -8.67090         2.91650
   C       -6.09071        -8.99736         2.10813
   C       -7.38946        -9.42691         2.56173
   C       -8.10038        -8.91671         3.66852
   C       -7.71252        -7.67852         4.38243
   O       -6.88559        -6.87379         4.08409
   S       -8.78482        -7.46339         5.80860
   C       -9.77853        -8.89045         5.39561
   O      -10.64624        -9.29154         6.11272
   C       -9.30818        -9.46493         4.11175
   C       -9.95617       -10.52149         3.43935
   C       -9.25998       -10.99750         2.31875
   C       -8.04833       -10.47186         1.89670
   C       -7.63854       -11.22156         0.68485
   O       -6.67268       -11.10068        -0.00221
   O       -8.61490       -12.15588         0.44023
   C       -9.61904       -12.08606         1.37356
   O      -10.56106       -12.81407         1.36363
   C      -11.24779       -11.08808         3.74734
   C      -12.31901       -10.38592         4.16467
   C      -13.60398       -10.97628         4.32372
   C      -14.77875       -10.30968         4.44554
   C      -15.99106       -11.01283         4.96098
   O      -16.15184       -12.20294         5.05908
   C      -16.90960        -9.92877         5.37038
   C      -16.36253        -8.68244         5.00902
   C      -15.10483        -8.90244         4.29712
   C      -14.48839        -7.99300         3.48256
   C      -13.41490        -8.27809         2.60948
   N      -12.56445        -8.43943         1.85604
   C      -14.91855        -6.65355         3.34274
   N      -15.22016        -5.55611         3.20323
   C      -17.03656        -7.51614         5.33106
   C      -18.25166        -7.61222         5.99960
   C      -18.79545        -8.85430         6.34077
   C      -18.11912       -10.02636         6.02714
  Br      -20.45329        -8.95461         7.23826
  Br      -19.16691        -6.02269         6.44925
   H        9.43170        -4.86194         8.57316
   H        4.91905        -5.32403        10.61790
   H        5.86628        -5.70937         4.38436
   H        0.78565        -6.87650         2.07305
   H       -0.55997        -7.67132         4.71960
   H       -3.90747        -8.14056         0.27065
   H       -5.17016        -8.70153         3.99147
   H       -5.93649        -9.06835         1.04081
   H      -11.37695       -12.12426         3.46252
   H      -12.23003        -9.33266         4.38112
   H      -13.65558       -12.05582         4.41205
   H      -16.64357        -6.54145         5.09030
   H      -18.52703       -10.99001         6.29024
*
