# ORCA input file
# SCF done       -150.617889530794          0.001000347664
! CAM-B3LYP def2-SVP def2/J RIJCOSX Grid4 TightSCF
%maxcore 5000
%tddft
    Mode sTDDFT
    Ethresh 5.0
    maxcore 5000
end

%pal
  nprocs 6
  end
* xyz 0 1
   C        1.20206         0.73889         1.03995
   O        0.64719        -0.11329         1.68366
   C        2.05291         1.82743         1.57136
   C        2.60288         2.57381         0.51472
   C        3.44796         3.63714         0.79412
   C        3.72569         3.93613         2.12230
   C        3.17289         3.18795         3.16604
   C        2.32966         2.11976         2.89125
  Br        3.56775         3.62221         4.96035
  Br        4.87792         5.38285         2.50635
   C        2.12927         2.02658        -0.75219
   C        2.37358         2.55255        -1.99046
   C        3.17435         3.69393        -2.22031
   N        3.81714         4.61118        -2.46663
   C        1.85120         2.05307        -3.20449
   N        1.46265         1.70974        -4.22801
   C        1.29179         0.87479        -0.44731
   C        0.81280        -0.02447        -1.34287
   C       -0.10537        -1.07258        -1.05452
   S       -0.15581        -2.53258        -2.04882
   C       -1.47193        -3.03353        -1.00614
   N       -1.76393        -2.13211        -0.10334
   N       -1.02186        -1.07552        -0.13128
   C       -2.11672        -4.29566        -1.13516
   C       -3.11931        -4.66904        -0.31192
   C       -3.74271        -5.94598        -0.39108
   S       -5.03187        -6.42461         0.70420
   C       -4.99739        -7.96533        -0.14032
   N       -4.10769        -7.99006        -1.09503
   N       -3.42713        -6.89288        -1.23169
   C       -5.84399        -9.04768         0.23058
   C       -5.77158       -10.26285        -0.35221
   C       -6.59845       -11.34461         0.06267
   S       -6.44886       -12.96111        -0.60862
   C       -7.73284       -13.40158         0.50920
   N       -8.13880       -12.38666         1.22354
   N       -7.52407       -11.27197         0.98123
   C       -8.24104       -14.72456         0.61760
   C       -9.14622       -15.06400         1.56535
   C       -9.67330       -16.37327         1.69959
   C      -10.41437       -16.84180         2.73871
   C      -11.23905       -18.07288         2.58870
   O      -11.15529       -18.90458         1.71881
   C      -12.21351       -18.01058         3.70112
   C      -11.92067       -16.90803         4.52698
   C      -10.70807       -16.25853         4.03337
   C       -9.88545       -15.44238         4.76006
   C       -8.57008       -15.10751         4.36542
   N       -7.47384       -14.87229         4.12434
   C      -10.20934       -14.95529         6.04513
   N      -10.44582       -14.52829         7.08301
   C      -12.72815       -16.62818         5.61617
   C      -13.81266       -17.46011         5.87072
   C      -14.08664       -18.56300         5.05692
   C      -13.28301       -18.84314         3.95908
  Br      -15.55875       -19.68570         5.43279
  Br      -14.92573       -17.07035         7.34671
   H        3.89868         4.23229         0.01661
   H        1.89707         1.53182         3.68586
   H        1.14103         0.01925        -2.37329
   H       -1.77012        -4.96567        -1.90752
   H       -3.46393        -3.99042         0.45430
   H       -6.55325        -8.87703         1.02686
   H       -5.05971       -10.44413        -1.14342
   H       -7.84071       -15.46492        -0.06034
   H       -9.49192       -14.28651         2.23155
   H       -9.54151       -17.05613         0.86704
   H      -12.54634       -15.78336         6.26113
   H      -13.48829       -19.69015         3.32298
*
