# ORCA input file
# SCF done       -199.248199728287          0.000890356707
! CAM-B3LYP def2-SVP def2/J RIJCOSX Grid4 TightSCF
%maxcore 5000
%tddft
    Mode sTDDFT
    Ethresh 5.0
    maxcore 5000
end

%pal
  nprocs 6
  end
* xyz 0 1
   C        1.83573       -10.97730        -8.88005
   O        0.71401       -10.64477        -8.59787
   C        2.46771       -10.88578       -10.21664
   C        3.81189       -11.29067       -10.14697
   C        4.59731       -11.25996       -11.28916
   C        4.02364       -10.83236       -12.48031
   C        2.68391       -10.43745       -12.54049
   C        1.89583       -10.45898       -11.39750
  Br        1.92961        -9.86656       -14.17455
  Br        5.09492       -10.78639       -14.03596
   C        4.11747       -11.68948        -8.77706
   C        5.28702       -12.25696        -8.35250
   C        6.40188       -12.48808        -9.18894
   N        7.33767       -12.69325        -9.81982
   C        5.53764       -12.71436        -7.03948
   N        5.80911       -13.12196        -6.00182
   C        2.92547       -11.45639        -7.97512
   C        2.85811       -11.49039        -6.61983
   C        1.67239       -11.37432        -5.84422
   S        1.73140       -10.78679        -4.17864
   C        0.00121       -11.05382        -4.16536
   N       -0.43567       -11.55338        -5.29562
   N        0.46879       -11.72161        -6.20046
   C       -0.81117       -10.72524        -3.04396
   C       -2.14822       -10.92096        -3.08767
   C       -3.14379       -10.64483        -2.10523
   S       -4.73718       -11.11455        -2.59076
   C       -5.45050       -10.59691        -1.09053
   C       -4.46400       -10.07569        -0.25403
   C       -3.15395       -10.10042        -0.82088
   C       -1.96132        -9.52785        -0.12867
   O       -0.99737        -9.11156        -0.71496
   O       -1.99595        -9.49676         1.20335
   O       -4.60040        -9.57408         0.99577
   C       -5.82738        -9.08086         1.50422
   C       -6.85091       -10.74581        -0.89876
   C       -7.66827       -11.28714        -1.83065
   C       -9.09082       -11.40648        -1.71819
   C       -9.78727       -12.48100        -2.32550
   C       -9.12013       -13.56888        -3.07255
   O       -7.95110       -13.74213        -3.24618
   S      -10.36385       -14.69066        -3.72403
   C      -11.71354       -13.78949        -2.98241
   O      -12.85803       -14.11814        -3.07520
   C      -11.16804       -12.61932        -2.25866
   C      -11.99710       -11.68149        -1.62351
   C      -11.31945       -10.59906        -1.06550
   C       -9.92992       -10.46766        -1.08253
   C       -9.62555        -9.16455        -0.44678
   O       -8.58820        -8.59858        -0.26987
   O      -10.81650        -8.60799        -0.04791
   C      -11.87854        -9.41233        -0.37646
   O      -13.00628        -9.12678        -0.12202
   C      -13.44299       -11.81562        -1.65757
   C      -14.21988       -10.89742        -2.24979
   C      -15.60763       -11.11723        -2.50971
   C      -16.29790       -10.63807        -3.57004
   C      -17.78849       -10.71525        -3.59276
   O      -18.49089       -11.35088        -2.84791
   C      -18.19889        -9.80949        -4.68580
   C      -17.05725        -9.31786        -5.34754
   C      -15.86315        -9.92602        -4.76062
   C      -14.63292        -9.96741        -5.35723
   C      -13.51198       -10.71968        -4.94179
   N      -12.54784       -11.30147        -4.71633
   C      -14.33336        -9.29557        -6.56638
   N      -14.03225        -8.76405        -7.53663
   C      -17.20545        -8.41739        -6.39007
   C      -18.48819        -8.03379        -6.76380
   C      -19.61630        -8.54069        -6.11194
   C      -19.47336        -9.43486        -5.05893
  Br      -21.34678        -8.01255        -6.65007
  Br      -18.68860        -6.80105        -8.18045
   H        5.63538       -11.55030       -11.28042
   H        0.86146       -10.15324       -11.42741
   H        3.76809       -11.59668        -6.04343
   H       -0.32058       -10.28532        -2.19135
   H       -2.54376       -11.35440        -3.99964
   H       -2.86954        -9.71839         1.56392
   H       -6.42212        -9.89099         1.93425
   H       -6.40179        -8.54711         0.74648
   H       -5.54655        -8.39096         2.30015
   H       -7.26471       -10.44536         0.04714
   H       -7.23024       -11.70953        -2.72475
   H      -13.85830       -12.76509        -1.35015
   H      -13.78290        -9.98046        -2.62155
   H      -16.16972       -11.71631        -1.80211
   H      -16.36028        -7.99885        -6.91190
   H      -20.33569        -9.82932        -4.54420
*
