# ORCA input file
# SCF done       -196.911190511905          0.000793063190
! CAM-B3LYP def2-SVP def2/J RIJCOSX Grid4 TightSCF
%maxcore 5000
%tddft
    Mode sTDDFT
    Ethresh 5.0
    maxcore 5000
end

%pal
  nprocs 6
  end
* xyz 0 1
   C        0.57809         5.19671         2.70107
   C        0.15661         3.95866         2.30155
   C       -0.69005         3.13336         3.07192
   N       -1.39039         2.43211         3.65073
   C        0.57463         3.31766         1.11651
   N        0.90363         2.71572         0.19614
   C        0.36915         5.77905         4.02062
   C        1.31234         6.83194         4.21013
   C        1.37700         7.53539         5.37867
   C        0.48245         7.21862         6.42515
   C       -0.47316         6.17798         6.23655
   C       -0.51544         5.46350         5.01810
   C       -1.36432         5.87570         7.28662
   C       -1.31370         6.56464         8.46750
   C       -0.37201         7.58828         8.65261
   C        0.50690         7.90801         7.65369
   C        2.11522         6.99968         2.98612
   O        3.02759         7.76533         2.79027
   C        1.50494         6.06429         1.98983
   C        1.77033         6.21041         0.67661
   C        1.02622         5.66080        -0.43105
   C       -0.33833         5.63129        -0.51267
   S       -0.89943         4.98461        -1.99750
   C        0.69688         4.71719        -2.53299
   C        1.62745         5.13246        -1.62124
   C        3.07445         4.97877        -1.77506
   O        3.90276         5.26807        -0.94862
   O        3.38410         4.45734        -2.99020
   C        4.69554         4.21253        -3.26571
   C        5.02184         3.66648        -4.44581
   C        6.30164         3.30572        -4.96168
   N        7.55638         3.52362        -4.44286
   C        7.92513         4.16563        -3.20441
   C        7.82435         3.21299        -2.01541
   C        8.56368         2.99782        -5.28053
   O        9.74963         3.07610        -5.02396
   C        7.85081         2.42546        -6.39616
   C        6.46610         2.63967        -6.16799
   C        5.73252         2.09019        -7.28371
   O        4.54780         2.04049        -7.54071
   N        6.73679         1.57704        -8.12988
   C        6.39974         0.88332        -9.34794
   C        6.47872        -0.63253        -9.17920
   C        7.99892         1.76610        -7.61161
   C        9.18813         1.35730        -8.27073
   C       10.41777         1.53304        -7.72875
   C       11.63541         1.15943        -8.36517
   S       13.15157         1.50751        -7.58508
   C       14.03135         0.82876        -8.89437
   C       15.49862         0.88405        -8.81545
   O       16.08235         1.02945        -7.77659
   O       16.16792         0.78367        -9.98215
   C       13.19137         0.35269        -9.90348
   C       11.83503         0.54541        -9.58220
   C       13.64329        -0.35349       -11.07961
   C       13.13442        -0.21547       -12.32698
   C       13.52731        -0.97749       -13.50741
   C       14.16912        -2.18513       -13.50898
   C       14.49868        -2.90014       -14.68092
   N       14.79149        -3.52249       -15.59925
   C       14.54113        -2.90048       -12.34959
   N       14.84607        -3.54157       -11.44796
   C       13.02853        -0.26966       -14.67720
   C       12.25382         0.84365       -14.24118
   C       12.24284         0.89983       -12.77164
   O       11.67131         1.71182       -12.07915
   C       11.64546         1.68991       -15.12415
   C       11.78783         1.45783       -16.50960
   C       12.56814         0.35070       -16.95457
   C       13.18625        -0.50794       -16.01783
   C       12.70690         0.13172       -18.34051
   C       12.10326         0.96331       -19.24402
   C       11.33466         2.05202       -18.80475
   C       11.17996         2.29405       -17.46676
   H        2.10396         8.32407         5.50352
   H       -1.25510         4.68723         4.89861
   H       -2.08477         5.08433         7.14065
   H       -1.99867         6.32410         9.26662
   H       -0.34697         8.12220         9.59069
   H        1.23400         8.69495         7.79052
   H        2.60417         6.85597         0.42329
   H       -1.04282         5.99404         0.21020
   H        0.88036         4.26377        -3.48639
   H        5.37564         4.47860        -2.46892
   H        4.21361         3.43164        -5.12717
   H        7.31149         5.05729        -3.05992
   H        8.96806         4.47417        -3.32736
   H        6.82432         2.79489        -1.92774
   H        8.06529         3.74264        -1.09801
   H        8.52944         2.39502        -2.14072
   H        7.05326         1.22101       -10.15754
   H        5.37103         1.17188        -9.58239
   H        7.48255        -0.94246        -8.89651
   H        6.20863        -1.12276       -10.11058
   H        5.78771        -0.95430        -8.40412
   H        9.08829         0.90371        -9.24529
   H       10.50683         1.99747        -6.75562
   H       15.58126         0.75621       -10.74983
   H       11.03715         0.20955       -10.21660
   H       14.45173        -1.05981       -10.92180
   H       11.06229         2.52597       -14.76749
   H       13.77704        -1.33205       -16.38503
   H       13.29806        -0.70835       -18.67399
   H       12.21455         0.78673       -20.30318
   H       10.86655         2.69827       -19.53191
   H       10.59015         3.13086       -17.12245
*
