# ORCA input file
# SCF done       -185.454559551639          0.000534444970
! CAM-B3LYP def2-SVP def2/J RIJCOSX Grid4 TightSCF
%maxcore 5000
%tddft
    Mode sTDDFT
    Ethresh 5.0
    maxcore 5000
end

%pal
  nprocs 6
  end
* xyz 0 1
   C       -0.64250         0.77792         1.35226
   S       -0.03095         2.22830         2.03334
   C        1.38383         1.39578         2.63675
   C        1.34677         0.06633         2.29861
   C        0.17527        -0.28621         1.57862
   C       -0.07148        -1.71529         1.21561
   C       -0.20500        -2.54490         2.48731
   S        1.06058        -2.06169         3.72995
   O        0.42039        -1.21244         4.70112
   O        1.71832        -3.24315         4.21012
   C        2.23314        -0.99706         2.80163
   C        2.37992         2.12861         3.35876
   C        3.73954         2.23060         3.12408
   N        4.49571         1.59402         2.12885
   O        5.65742         1.94244         1.99890
   O        3.95604         0.74537         1.43283
   C        4.29586         3.23698         4.00091
   C        3.29348         3.78076         4.72901
   C        2.06369         3.10173         4.39863
   C        0.85449         3.18153         5.06285
   C       -0.05702         2.10647         5.29188
   C       -0.97304         2.50710         6.22196
   C       -0.73744         3.87835         6.55583
   N       -1.59129         4.62755         7.38355
   O       -1.43930         5.83769         7.43547
   O       -2.45039         4.01847         7.99809
   C        0.37489         4.33769         5.85097
   C        0.87157         5.64819         5.78060
   C        1.54199         6.14704         4.69255
   C        2.10926         7.42939         4.65571
   N        2.61872         8.01457         3.51719
   C        2.59357         7.45666         2.18605
   C        1.20294         7.52931         1.56137
   C        3.13701         9.29105         3.76517
   O        3.62823        10.00050         2.90854
   C        2.94728         9.48592         5.18933
   C        2.31941         8.33682         5.70426
   C        2.18509         8.49914         7.13827
   O        1.75851         7.77056         8.00472
   N        2.73290         9.77483         7.39171
   C        2.72508        10.33178         8.72298
   C        1.59122        11.33686         8.90862
   C        3.19408        10.37494         6.24868
   C        3.82070        11.63894         6.21697
   C        4.27402        12.19331         5.05728
   C        4.92738        13.44253         4.95727
   S        5.44225        14.00171         3.38252
   C        6.09747        15.45744         4.04628
   C        5.91770        15.48720         5.43507
   C        5.26131        14.35833         5.93817
   C        6.37218        16.55501         6.22770
   N        6.75075        17.42991         6.86551
   C        6.72401        16.47095         3.27551
   C        6.86806        16.40874         1.93180
   C        7.47277        17.38212         1.08427
   S        6.99411        17.36700        -0.59949
   C        7.97765        18.71969        -0.94476
   C        8.65288        19.16259         0.15627
   C        8.38482        18.39247         1.31751
   C        9.19292        18.64988         2.55081
   C       10.67113        18.49441         2.22246
   S       11.18297        19.61575         0.86472
   O       11.93661        20.70532         1.41905
   O       11.79978        18.82356        -0.16105
   C        9.60497        20.28814         0.20593
   H       -1.57486         0.79577         0.82351
   H        0.76987        -2.08246         0.62202
   H       -0.97649        -1.80760         0.61201
   H       -0.06502        -3.60639         2.30879
   H       -1.15607        -2.36794         2.98256
   H        2.69506        -1.59202         2.01990
   H        2.98216        -0.64491         3.50326
   H        5.34147         3.47565         4.03228
   H        3.39034         4.51077         5.50821
   H        0.05666         1.10520         4.91893
   H       -1.75914         1.91635         6.65299
   H        0.63814         6.30603         6.61026
   H        1.60885         5.54453         3.79731
   H        2.95280         6.42377         2.21798
   H        3.29419         8.05428         1.59641
   H        0.47814         6.97472         2.15303
   H        1.22960         7.11030         0.55956
   H        0.87777         8.56473         1.49649
   H        3.69520        10.79012         8.93468
   H        2.57944         9.48710         9.40198
   H        1.68369        12.16638         8.21067
   H        1.60937        11.72727         9.92215
   H        0.63395        10.84949         8.74218
   H        3.94314        12.16434         7.15238
   H        4.13799        11.65084         4.13028
   H        5.04556        14.22522         6.98293
   H        7.05822        17.33197         3.83675
   H        6.43884        15.55807         1.41511
   H        8.00575        19.12175        -1.93782
   H        8.93708        17.95138         3.34649
   H        9.00567        19.66406         2.91477
   H       10.89906        17.49141         1.87245
   H       11.30243        18.75298         3.06744
   H        9.81882        20.70900        -0.77171
   H        9.30856        21.07006         0.90138
*
