# ORCA input file
# SCF done       -202.516666231014          0.000819911806
! CAM-B3LYP def2-SVP def2/J RIJCOSX Grid4 TightSCF
%maxcore 5000
%tddft
    Mode sTDDFT
    Ethresh 5.0
    maxcore 5000
end

%pal
  nprocs 6
  end
* xyz 0 1
   C        3.87648         9.53952        -0.69549
   S        4.66304         9.31841         0.80153
   C        3.84000         7.81960         1.04032
   C        4.15082         7.01183         2.22266
   O        4.74698         7.41126         3.18677
   O        3.71065         5.75105         2.09315
   C        2.98339         7.52395         0.01462
   C        3.01949         8.50811        -0.99781
   O        2.29442         8.55686        -2.14692
   C        1.84313         7.50457        -2.82754
   C        0.80143         7.63702        -3.73382
   N        0.26180         8.83295        -4.20507
   O       -0.74904         8.77835        -4.88503
   O        0.83397         9.88030        -3.92760
   C        0.36754         6.32826        -4.14065
   C        1.11478         5.39879        -3.49046
   C        2.12883         6.05737        -2.72145
   C        3.17756         5.38930        -2.11109
   C        3.07854         4.06989        -1.57276
   C        4.14254         3.85350        -0.74532
   C        5.01934         4.97683        -0.81067
   N        6.18127         5.09489        -0.05040
   O        6.84677         6.12120        -0.15158
   O        6.45765         4.18241         0.71318
   C        4.49373         5.91056        -1.71899
   C        5.13841         7.03004        -2.25738
   C        4.71309         7.67464        -3.39482
   C        5.05991         8.94417        -3.87435
   N        5.98453         9.86233        -3.42491
   C        7.06619         9.65616        -2.48812
   C        8.14203         8.73409        -3.05271
   C        5.87316        11.08596        -4.10771
   O        6.58715        12.04535        -3.89053
   C        4.77202        10.89727        -5.03095
   C        4.31776         9.58235        -4.88151
   C        3.17578         9.38872        -5.75662
   O        2.48969         8.41573        -5.97485
   N        3.01522        10.63523        -6.39066
   C        1.94618        10.86608        -7.33604
   C        0.80145        11.66437        -6.71808
   C        3.94650        11.54277        -5.97218
   C        4.03271        12.86045        -6.47016
   C        5.04584        13.69753        -6.10835
   C        5.29174        15.01450        -6.56114
   S        6.45936        15.93578        -5.65700
   C        6.23425        17.33127        -6.65405
   C        5.28914        17.07688        -7.64819
   C        4.78248        15.77157        -7.61755
   C        3.89074        15.24583        -8.70087
   N        4.41786        13.95327        -9.22953
   O        5.60725        13.86319        -9.38203
   O        3.60226        13.11022        -9.51311
   C        3.86921        16.19868        -9.90310
   C        3.61648        17.62087        -9.42663
   C        4.81693        18.11916        -8.61957
   N        4.36688        19.32419        -7.85576
   O        4.91141        20.36940        -8.10849
   O        3.48652        19.16241        -7.05187
   C        6.97630        18.52404        -6.45215
   C        7.84898        18.70901        -5.43309
   C        8.60384        19.88894        -5.23350
   S        8.49494        21.27715        -6.27153
   C        9.67045        22.13560        -5.33190
   C       10.13052        23.50025        -5.64311
   O       10.98058        24.04245        -4.99012
   O        9.55466        24.10906        -6.68921
   C       10.11780        21.38293        -4.27299
   C        9.52059        20.11543        -4.20822
   O        9.76992        19.17425        -3.27785
   H        4.05664        10.40809        -1.29650
   H        3.97808         5.22734         2.86572
   H        2.35180         6.65513         0.01351
   H       -0.41283         6.16556        -4.85838
   H        1.06161         4.33600        -3.61934
   H        2.23019         3.42568        -1.69500
   H        4.32168         2.99522        -0.12603
   H        6.02944         7.34795        -1.73654
   H        3.94273         7.20255        -3.99421
   H        6.67637         9.27048        -1.54310
   H        7.48986        10.64835        -2.30689
   H        7.72828         7.76507        -3.32088
   H        8.91650         8.58296        -2.30681
   H        8.58973         9.17722        -3.93928
   H        1.58234         9.87584        -7.62237
   H        2.34736        11.36480        -8.22405
   H        0.45427        11.17453        -5.81276
   H       -0.02325        11.72053        -7.42237
   H        1.11189        12.67339        -6.45643
   H        3.25452        13.16623        -7.14836
   H        5.74637        13.34334        -5.36090
   H        2.87034        15.06328        -8.34694
   H        3.08965        15.88998       -10.60069
   H        4.83402        16.15086       -10.41483
   H        2.72997        17.64107        -8.78747
   H        3.44471        18.27766       -10.28015
   H        5.62976        18.45177        -9.27453
   H        6.84695        19.32563        -7.16700
   H        8.00880        17.93040        -4.69881
   H        8.87517        23.57374        -7.12166
   H       10.85119        21.75398        -3.57885
   H       10.42553        19.49649        -2.64738
*
