# ORCA input file
# SCF done       -197.305619795014          0.000531530122
! CAM-B3LYP def2-SVP def2/J RIJCOSX Grid4 TightSCF
%maxcore 5000
%tddft
    Mode sTDDFT
    Ethresh 5.0
    maxcore 5000
end

%pal
  nprocs 6
  end
* xyz 0 1
   C       -9.16079        -2.42641         6.88826
   C      -10.09426        -3.33034         7.37275
   C      -10.04833        -4.67120         7.01583
   C       -9.06008        -5.14925         6.16914
   C       -8.12135        -4.25558         5.68018
   C       -8.17111        -2.88714         6.03343
   C       -7.09108        -2.18039         5.35636
   C       -6.75025        -0.87003         5.53326
   C       -7.39568        -0.00477         6.44537
   N       -7.87091         0.74894         7.16787
   C       -5.70519        -0.18762         4.86942
   N       -4.89010         0.44780         4.37188
   C       -6.47560        -3.14201         4.44063
   C       -6.96741        -4.46449         4.82353
   C       -6.29981        -5.64519         4.65088
   C       -5.01367        -5.74252         4.07612
   N       -3.95270        -5.85851         3.65467
   C       -6.78094        -6.89217         5.10291
   N       -7.13503        -7.93355         5.42859
   C       -5.70164        -2.81640         3.36972
   C       -5.42099        -3.60543         2.22484
   C       -4.38866        -3.41724         1.33636
   C       -3.19005        -2.55688         1.26423
   O       -2.82140        -1.67963         1.99799
   N       -2.53742        -2.97193         0.10920
   C       -1.29552        -2.39281        -0.34141
   C       -3.18156        -3.99418        -0.57420
   O       -2.79380        -4.48638        -1.60360
   C       -4.38422        -4.28647         0.22848
   C       -5.44257        -5.17088         0.21132
   S       -6.45353        -4.89598         1.61446
   C       -5.75997        -6.18097        -0.72788
   C       -5.19695        -6.36634        -1.98103
   C       -5.75231        -7.46263        -2.63431
   C       -6.72349        -8.12934        -1.86068
   S       -6.98058        -7.38701        -0.34849
   C       -7.19930        -9.24250        -2.59325
   C       -6.54738        -9.27212        -3.84235
   C       -5.61321        -8.15692        -3.90676
   C       -4.78453        -7.83346        -4.93730
   C       -3.95753        -6.68671        -4.92710
   N       -3.29846        -5.75038        -4.96463
   C       -4.67555        -8.61689        -6.10923
   N       -4.54020        -9.24218        -7.05966
   C       -6.97446       -10.31994        -4.65289
   C       -7.92567       -11.10150        -4.01586
   S       -8.30722       -10.52285        -2.40099
   C       -8.57612       -12.24797        -4.53136
   C       -8.61239       -12.73497        -5.82115
   C       -8.11083       -12.35438        -7.15530
   O       -7.41633       -11.42879        -7.49132
   N       -8.60852       -13.32588        -8.01296
   C       -8.35601       -13.31536        -9.43313
   C       -9.37234       -14.30408        -7.38683
   O       -9.88717       -15.24371        -7.93103
   C       -9.37209       -13.91241        -5.96261
   C       -9.96924       -14.36591        -4.81028
   S       -9.51573       -13.29386        -3.48772
   C      -10.71401       -15.56358        -4.65694
   C      -11.59147       -15.87677        -3.66506
   C      -11.98678       -17.23455        -3.28804
   C      -11.84885       -18.37271        -4.02974
   C      -11.31080       -18.45165        -5.33460
   N      -10.87823       -18.61413        -6.38448
   C      -12.25890       -19.65222        -3.59176
   N      -12.57352       -20.71557        -3.29816
   C      -12.53494       -17.14634        -1.94037
   C      -12.62911       -15.78544        -1.56753
   C      -13.09584       -15.42335        -0.31456
   C      -13.47184       -16.42675         0.56511
   C      -13.39053       -17.76339         0.19883
   C      -12.92343       -18.13766        -1.05218
   C      -12.20584       -14.97265        -2.69402
   C      -12.57030       -13.67610        -2.92977
   C      -13.23179       -12.86266        -1.98552
   N      -13.74878       -12.15215        -1.24807
   C      -12.40127       -13.02568        -4.17172
   N      -12.32296       -12.47682        -5.17637
   H       -9.21723        -1.38884         7.17288
   H      -10.87103        -2.98098         8.03541
   H      -10.79176        -5.35228         7.40039
   H       -9.03624        -6.19034         5.89034
   H       -5.27897        -1.81989         3.31703
   H       -1.25141        -1.35997        -0.00013
   H       -1.26213        -2.44180        -1.42867
   H       -0.44673        -2.94341         0.06858
   H       -4.41860        -5.73120        -2.36689
   H       -6.63830       -10.51799        -5.65584
   H       -9.00842       -12.59515        -9.93004
   H       -8.55504       -14.31317        -9.81967
   H       -7.31857       -13.03428        -9.61005
   H      -10.48128       -16.31347        -5.40379
   H      -13.15413       -14.38808        -0.01964
   H      -13.83087       -16.16281         1.54790
   H      -13.69123       -18.52755         0.89894
   H      -12.86267       -19.18079        -1.31469
*
