# ORCA input file
# SCF done       -220.952503856132          0.000612207867
! CAM-B3LYP def2-SVP def2/J RIJCOSX Grid4 TightSCF
%maxcore 5000
%tddft
    Mode sTDDFT
    Ethresh 5.0
    maxcore 5000
end

%pal
  nprocs 6
  end
* xyz 0 1
   C       -1.16865        -4.47928        11.07504
   C       -0.95774        -5.32456        12.12852
   F       -0.43864        -4.85710        13.27152
   C       -1.27921        -6.69338        12.02807
   F       -1.05582        -7.49636        13.07727
   C       -1.81258        -7.19885        10.87564
   C       -2.04546        -6.35146         9.77544
   C       -1.71579        -4.96874         9.87223
   C       -1.92982        -4.10601         8.77211
   C       -2.45926        -4.61177         7.61453
   C       -2.79381        -5.99347         7.53202
   C       -2.59760        -6.85139         8.57555
   C       -3.33702        -6.27943         6.19559
   O       -3.78376        -7.34880         5.81160
   C       -3.21740        -5.03146         5.43172
   C       -2.76852        -3.98445         6.33277
   C       -2.69827        -2.64297         6.06633
   C       -3.07535        -2.03311         4.85064
   N       -3.38075        -1.46686         3.89968
   C       -2.27240        -1.67597         7.00170
   N       -1.93003        -0.84552         7.71602
   C       -3.34996        -4.90911         4.07245
   C       -3.74253        -5.86001         3.11786
   C       -3.62938        -5.62858         1.74039
   C       -4.04869        -6.71042         0.99012
   C       -4.52949        -7.76302         1.80398
   S       -4.41207        -7.45035         3.46683
   C       -4.90317        -8.82996         0.94950
   C       -4.65096        -8.47465        -0.38369
   C       -4.11631        -7.12247        -0.40617
   C       -3.73466        -6.40294        -1.49951
   C       -3.82551        -6.91966        -2.80965
   N       -3.89189        -7.33893        -3.87454
   C       -3.20987        -5.09705        -1.39352
   N       -2.77512        -4.03936        -1.31502
   C       -4.93743        -9.50881        -1.28394
   C       -5.38509       -10.64241        -0.64235
   S       -5.50849       -10.41286         1.09644
   C       -5.77132       -11.89805        -1.24154
   C       -6.27813       -12.01692        -2.50513
   F       -6.47315       -11.02677        -3.37026
   S       -6.73826       -13.62244        -2.95898
   C       -6.24645       -14.15846        -1.38913
   F       -6.33677       -15.45221        -1.09029
   C       -5.73986       -13.18290        -0.57976
   C       -5.20898       -13.35361         0.74797
   C       -5.58429       -14.26567         1.66386
   C       -5.13552       -14.19076         3.01816
   C       -4.53120       -13.10871         3.63654
   C       -4.34092       -13.31926         4.99869
   C       -4.79060       -14.58042         5.42518
   S       -5.45697       -15.49367         4.14380
   C       -4.57201       -14.68003         6.82128
   C       -4.01333       -13.46905         7.28165
   C       -3.84809       -12.57523         6.14846
   C       -3.35769       -11.30108         6.14082
   C       -2.96454       -10.63518         7.31832
   N       -2.65705       -10.08984         8.27936
   C       -3.21982       -10.57475         4.93911
   N       -3.09752       -10.01829         3.94374
   C       -3.78301       -13.47243         8.65358
   C       -4.11207       -14.68398         9.24105
   S       -4.78243       -15.81726         8.06582
   C       -4.03400       -14.99295        10.61879
   C       -4.01937       -16.21123        11.22525
   C       -4.42917       -16.32718        12.65359
   O       -4.56873       -15.42226        13.44147
   C       -4.68777       -17.76695        12.86219
   C       -5.20593       -18.39606        13.95736
   C       -5.38998       -19.79671        13.92193
   C       -5.03567       -20.52046        12.74605
   C       -5.22599       -21.91663        12.71645
   C       -5.74157       -22.56443        13.80363
   C       -6.09169       -21.84795        14.96621
   C       -5.91979       -20.49335        15.02564
   F       -6.59740       -22.50900        16.01514
   F       -5.92072       -23.89077        13.77454
   C       -4.49575       -19.84307        11.62908
   C       -4.31945       -18.48693        11.68949
   C       -3.75846       -17.54444        10.72615
   C       -2.90046       -17.87212         9.70870
   C       -2.15922       -16.91613         8.98459
   N       -1.51727       -16.16303         8.40263
   C       -2.59890       -19.19707         9.33424
   N       -2.33905       -20.25752         8.98107
   H       -0.91458        -3.43503        11.16938
   H       -2.05152        -8.24827        10.80481
   H       -1.65930        -3.06732         8.87171
   H       -2.84502        -7.89889         8.48823
   H       -3.07044        -3.95721         3.63588
   H       -3.23869        -4.70808         1.34405
   H       -4.80206        -9.44923        -2.34834
   H       -4.45454       -12.63186         1.02103
   H       -6.28705       -15.04884         1.41962
   H       -4.27748       -12.19956         3.12611
   H       -3.36428       -12.65566         9.21332
   H       -4.07082       -14.14066        11.29119
   H       -5.47169       -17.83364        14.83939
   H       -4.95952       -22.48025        11.83603
   H       -6.19245       -19.95997        15.92275
   H       -4.24382       -20.41174        10.74804
*
