# ORCA input file
# SCF done       -181.922724198239          0.000586758487
! CAM-B3LYP def2-SVP def2/J RIJCOSX Grid4 TightSCF
%maxcore 5000
%tddft
    Mode sTDDFT
    Ethresh 5.0
    maxcore 5000
end

%pal
  nprocs 6
  end
* xyz 0 1
   C       -6.11809         3.29106        -1.14518
   C       -7.28016         3.92606        -1.48311
   F       -7.26436         5.22185        -1.82754
   C       -8.50557         3.23146        -1.47477
   F       -9.63056         3.87955        -1.81151
   C       -8.55244         1.91026        -1.12790
   C       -7.37219         1.22834        -0.77495
   C       -6.13201         1.92907        -0.78326
   C       -4.93329         1.26495        -0.43359
   C       -4.97356        -0.05992        -0.08696
   C       -6.21561        -0.74912        -0.08270
   C       -7.38909        -0.13733        -0.41349
   C       -5.99801        -2.15498         0.31724
   O       -6.86958        -2.99422         0.42080
   C       -4.54511        -2.28767         0.54552
   C       -3.92591        -0.99810         0.31206
   C       -2.59782        -0.66519         0.44247
   C       -1.55308        -1.52277         0.83907
   N       -0.64266        -2.15164         1.15372
   C       -2.07805         0.62240         0.19723
   N       -1.58233         1.64242         0.01542
   C       -3.84102        -3.41538         0.90030
   C       -4.24742        -4.72782         1.17522
   N       -3.29171        -5.66472         1.50239
   C       -3.87480        -6.86434         1.73950
   C       -5.26297        -6.70499         1.55907
   C       -5.48995        -5.39260         1.21261
   C       -3.21844        -8.02495         2.09307
   C       -2.73053        -9.09788         2.40875
   C       -2.31830       -10.35964         2.76709
   C       -3.24327       -11.35842         2.95581
   C       -3.02607       -12.70908         3.31994
   C       -4.16884       -13.44453         3.42714
   C       -5.34761       -12.71527         3.15447
   S       -4.95987       -11.05576         2.75348
   C       -6.66030       -13.14811         3.17298
   C       -7.17253       -14.43106         3.46434
   C       -8.53039       -14.51013         3.38849
   C       -9.17324       -13.29610         3.03407
   S       -7.96581       -12.04658         2.80020
   C      -10.52728       -13.11765         2.89479
   C      -11.20563       -11.93520         2.54990
   N      -12.56114       -11.89953         2.45014
   C      -12.97341       -10.64679         2.10648
   C      -11.82518        -9.84019         1.97919
   C      -10.73568       -10.63353         2.25351
   C      -14.29659       -10.31807         1.94011
   C      -15.50514       -10.16387         1.82699
   C      -16.80220        -9.77556         1.65062
   C      -17.99057       -10.45204         1.78040
   C      -19.21959        -9.66421         1.51620
   O      -19.26798        -8.49859         1.18470
   C      -20.34727       -10.58388         1.74371
   C      -21.68477       -10.33628         1.64497
   C      -22.59763       -11.37813         1.92343
   C      -22.09534       -12.65640         2.29989
   C      -23.00675       -13.69373         2.58123
   C      -24.35238       -13.47110         2.49250
   C      -24.84724       -12.20619         2.11929
   C      -23.98885       -11.17966         1.83992
   F      -26.17226       -12.01637         2.04039
   F      -25.21744       -14.45939         2.76145
   C      -20.70151       -12.87970         2.39112
   C      -19.83236       -11.85702         2.11557
   C      -18.36587       -11.79544         2.13293
   C      -17.56422       -12.87386         2.43374
   C      -16.16535       -12.93087         2.48543
   N      -15.03847       -13.14467         2.57671
   C      -18.05063       -14.16114         2.74983
   N      -18.35297       -15.23730         3.01494
   H       -5.18823         3.83798        -1.15670
   H       -9.49857         1.39199        -1.12622
   H       -4.01386         1.82662        -0.45195
   H       -8.31702        -0.68865        -0.40041
   H       -2.76903        -3.28382         0.98664
   H       -2.30265        -5.47886         1.56170
   H       -5.98760        -7.48590         1.67767
   H       -6.43424        -4.93440         1.00283
   H       -1.26577       -10.56277         2.90005
   H       -2.03554       -13.09288         3.49043
   H       -4.19496       -14.48590         3.69427
   H       -6.53095       -15.25513         3.71978
   H       -9.09699       -15.40506         3.57659
   H      -11.14792       -13.98732         3.07217
   H      -13.21997       -12.66044         2.59346
   H      -11.82431        -8.80066         1.71756
   H       -9.71102       -10.32259         2.24480
   H      -16.93153        -8.73360         1.35827
   H      -22.04111        -9.35812         1.35988
   H      -22.64497       -14.66879         2.86817
   H      -24.38264       -10.21640         1.55570
   H      -20.36348       -13.86077         2.68056
*
