# ORCA input file
# SCF done       -153.198036502890          0.000470891359
! CAM-B3LYP def2-SVP def2/J RIJCOSX Grid4 TightSCF
%maxcore 5000
%tddft
    Mode sTDDFT
    Ethresh 5.0
    maxcore 5000
end

%pal
  nprocs 6
  end
* xyz 0 1
   C       -5.27844        -1.63135        -1.02874
   C       -5.00420        -1.40402         0.28666
   C       -4.75101        -0.04035         0.52539
   C       -4.84405         0.73056        -0.64159
   S       -5.23341        -0.20542        -2.01085
   C       -4.57632         2.08767        -0.30810
   C       -4.31455         2.16774         1.06832
   C       -4.41383         0.82883         1.63657
   C       -4.22122         0.47182         2.94004
   C       -3.88569         1.40565         3.94211
   N       -3.61092         2.14854         4.77169
   C       -4.34078        -0.86342         3.37731
   N       -4.43585        -1.94703         3.74161
   C       -4.03481         3.46584         1.49554
   C       -4.08334         4.37654         0.45609
   S       -4.48040         3.60294        -1.07893
   C       -3.81023         5.77637         0.48601
   C       -3.92888         6.56544        -0.65523
   C       -3.52111         7.88551        -0.70740
   C       -2.94744         8.55058         0.37934
   C       -2.96346         7.83088         1.60914
   C       -3.37211         6.44900         1.66074
   N       -3.26089         5.94971         2.88876
   S       -2.70822         7.09149         3.87720
   N       -2.56788         8.27841         2.79598
   C       -2.30546         9.81535         0.29310
   C       -1.71656        10.31199        -0.84305
   C       -0.97990        11.51554        -0.99584
   C       -0.35518        11.65323        -2.20357
   C       -0.55954        10.56272        -3.07212
   S       -1.61617         9.38859        -2.33165
   C       -0.06338        10.25160        -4.32992
   C        0.75530        10.93858        -5.24299
   C        1.03800        10.22139        -6.37458
   C        0.47035         8.92517        -6.41091
   S       -0.46979         8.67259        -4.96005
   C        0.64447         7.96514        -7.38732
   C        0.14774         6.65569        -7.36907
   C       -0.66545         6.01680        -6.42707
   C       -0.87914         4.68505        -6.72354
   C       -0.24805         4.25987        -7.91082
   S        0.61228         5.54001        -8.66147
   C       -0.51373         2.88667        -8.08185
   C       -1.30483         2.43595        -7.00193
   C       -1.56289         3.54513        -6.11768
   C       -2.27447         3.54400        -4.94915
   C       -2.86517         2.38066        -4.41753
   N       -3.34855         1.44558        -3.96015
   C       -2.47811         4.70216        -4.17302
   N       -2.66992         5.62729        -3.52107
   C       -1.60791         1.07350        -7.08177
   C       -1.06233         0.48240        -8.19961
   S       -0.15297         1.62948        -9.18489
   C       -1.15638        -0.87820        -8.59622
   C       -0.61596        -1.47410        -9.71082
   C       -0.91748        -2.84088        -9.76241
   C       -1.68573        -3.29638        -8.69341
   S       -2.04990        -2.01462        -7.59510
   C       -1.98263        -4.67113        -8.75249
   C       -1.43928        -5.24003        -9.85983
   S       -0.55790        -4.13047       -10.85599
   H       -5.50729        -2.56893        -1.49485
   H       -4.98639        -2.17365         1.03652
   H       -3.80365         3.76326         2.50205
   H       -4.31661         6.11674        -1.55742
   H       -3.67700         8.41778        -1.63112
   H       -2.16921        10.35884         1.21808
   H       -0.91954        12.23627        -0.19916
   H        0.26369        12.49056        -2.47438
   H        1.11669        11.93334        -5.05080
   H        1.65196        10.58484        -7.18010
   H        1.26008         8.23918        -8.23402
   H       -1.08170         6.50347        -5.56757
   H       -2.19472         0.52826        -6.36418
   H       -0.03534        -0.94451       -10.44388
   H       -2.56152        -5.20122        -8.01939
   H       -1.49875        -6.26527       -10.16656
*
