# ORCA input file
# SCF done       -206.375882187610          0.000364467910
! CAM-B3LYP def2-SVP def2/J RIJCOSX Grid4 TightSCF
%maxcore 5000
%tddft
    Mode sTDDFT
    Ethresh 5.0
    maxcore 5000
end

%pal
  nprocs 6
  end
* xyz 0 1
   C      -11.58404         4.38187        -7.79922
   C      -12.05988         5.60194        -8.25307
   C      -13.35754         5.66145        -8.76357
   C      -13.86541         6.90058        -9.22748
   N      -14.26995         7.90564        -9.59702
   C      -14.17277         4.51454        -8.82393
   C      -15.48392         4.60683        -9.34968
   N      -16.54740         4.66221        -9.77057
   C      -13.68979         3.28934        -8.36230
   C      -12.40836         3.24434        -7.85589
   C      -11.69028         2.06467        -7.30447
   O      -12.12146         0.94041        -7.27782
   C      -10.38273         2.60155        -6.82892
   C      -10.29755         3.99970        -7.21758
   C       -9.20541         4.82104        -7.12044
   C       -9.18949         6.16733        -7.54873
   N       -9.11162         7.26469        -7.87425
   C       -7.93183         4.46609        -6.62136
   N       -6.86186         4.28137        -6.24845
   C       -9.44238         1.96112        -6.07262
   C       -9.41349         0.62385        -5.61982
   C       -8.41829         0.10202        -4.74704
   C       -8.72844        -1.25520        -4.53912
   C       -9.90335        -1.48640        -5.33746
   N      -10.28078        -0.35630        -5.94871
   O      -10.49473        -2.62711        -5.50679
   C      -11.70091        -2.64821        -6.26097
   C       -7.71597        -1.75267        -3.67483
   N       -6.80324        -0.76727        -3.40902
   C       -7.20624         0.34096        -4.02540
   O       -6.58043         1.48964        -3.98415
   C       -5.36121         1.53094        -3.25934
   C       -7.53548        -3.00412        -3.07659
   C       -8.42842        -4.08839        -2.94202
   C       -7.84597        -5.19450        -2.23156
   N       -8.48596        -6.35535        -2.13665
   C       -9.71145        -6.40959        -2.61665
   C      -10.39736        -7.72767        -2.59335
   O       -9.86002        -8.74683        -2.21597
   C      -11.79079        -7.71313        -3.07329
   C      -12.41978        -6.60854        -3.48586
   C      -11.79699        -5.27343        -3.50170
   O      -12.42869        -4.27482        -3.77718
   C      -10.35652        -5.24993        -3.14183
   N       -9.69941        -4.12284        -3.32924
   C       -6.54088        -4.91709        -1.77430
   S       -6.03331        -3.34354        -2.28457
   C       -5.65314        -5.72884        -1.05869
   C       -5.85956        -6.92541        -0.33121
   C       -4.58524        -7.32814         0.12066
   C       -3.67740        -6.31977        -0.34507
   N       -4.32629        -5.38003        -1.02021
   O       -2.38538        -6.31730        -0.12708
   C       -1.65841        -5.22399        -0.66741
   C       -4.76877        -8.52883         0.84181
   N       -6.09652        -8.83902         0.88254
   C       -6.76727        -7.89815         0.21072
   O       -8.06321        -7.83326         0.13140
   C       -8.82922        -8.91075         0.64565
   C       -3.76846        -9.27306         1.50625
   C       -3.91680       -10.46737         2.14531
   C       -2.92685       -10.90212         3.16626
   O       -1.81476       -10.46745         3.34410
   C       -3.63262       -11.93811         3.95874
   C       -3.20450       -12.58522         5.09869
   C       -4.06514       -13.50825         5.69527
   C       -5.33340       -13.75800         5.13537
   C       -5.75316       -13.10630         3.97434
   C       -4.89484       -12.19424         3.38415
   C       -5.02741       -11.39566         2.16599
   C       -5.89640       -11.63537         1.13950
   C       -6.96775       -12.54838         1.21606
   N       -7.87336       -13.25228         1.25397
   C       -5.74469       -11.08096        -0.15411
   N       -5.59241       -10.79293        -1.25423
   C       -6.19973       -14.68585         5.76531
   N       -6.90653       -15.43013         6.27231
   C       -3.66530       -14.19031         6.86961
   N       -3.32465       -14.73158         7.81949
   H      -11.46848         6.50285        -8.22068
   H      -14.30134         2.40050        -8.39746
   H       -8.59240         2.53816        -5.72886
   H      -12.47823        -3.02895        -5.59440
   H      -11.56355        -3.34004        -7.09309
   H      -11.94379        -1.64856        -6.62179
   H       -4.95711         2.52885        -3.41261
   H       -4.67193         0.77149        -3.63190
   H       -5.54565         1.34659        -2.19919
   H      -12.28668        -8.67446        -3.06604
   H      -13.44860        -6.63785        -3.81897
   H       -1.72187        -5.23112        -1.75707
   H       -0.62879        -5.35523        -0.34262
   H       -2.06436        -4.27973        -0.30040
   H       -9.15234        -9.52640        -0.19752
   H       -9.70159        -8.47905         1.13588
   H       -8.24367        -9.50298         1.34805
   H       -2.80085        -8.79190         1.59584
   H       -2.23132       -12.38168         5.51913
   H       -6.73125       -13.31850         3.57175
*
