# ORCA input file
# SCF done       -199.971729131480          0.000584889721
! CAM-B3LYP def2-SVP def2/J RIJCOSX Grid4 TightSCF
%maxcore 5000
%tddft
    Mode sTDDFT
    Ethresh 5.0
    maxcore 5000
end

%pal
  nprocs 6
  end
* xyz 0 1
   C       -4.35456         0.71358         0.55097
   C       -4.48901         2.09127         0.49513
   C       -5.43781         2.70031         1.31811
   C       -5.60002         4.10738         1.26880
   N       -5.72461         5.24438         1.22299
   C       -6.23861         1.94258         2.19453
   C       -7.19280         2.59031         3.01575
   N       -7.96888         3.09737         3.68790
   C       -6.09388         0.55553         2.25358
   C       -5.16357        -0.03644         1.42689
   C       -4.82893        -1.47336         1.29677
   O       -5.14364        -2.36598         2.04779
   C       -3.87343        -1.54603         0.16019
   C       -3.47896        -0.19647        -0.18948
   C       -2.48451         0.17579        -1.05336
   C       -2.15239         1.51416        -1.35629
   N       -1.83718         2.58074        -1.63679
   C       -1.63487        -0.72989        -1.72389
   N       -0.91249        -1.42441        -2.28387
   C       -3.44839        -2.72110        -0.38211
   C       -4.13858        -3.94280        -0.18090
   C       -3.69678        -5.23432        -0.18640
   C       -4.82738        -6.13154         0.03218
   N       -5.95700        -5.37924         0.09998
   C       -5.63348        -4.03251        -0.05954
   O       -6.44670        -3.15308        -0.19108
   C       -7.30991        -5.84993         0.21840
   C       -4.37989        -7.41317         0.02024
   C       -2.89628        -7.33117        -0.15223
   O       -2.07417        -8.20701        -0.12632
   N       -2.56754        -5.96553        -0.27858
   C       -1.22568        -5.48601        -0.47220
   C       -5.03814        -8.68793         0.16845
   C       -4.71310        -9.74242        -0.70878
   C       -5.23238       -11.06926        -0.53162
   N       -4.89348       -12.04549        -1.40869
   C       -4.11528       -11.73595        -2.40504
   C       -3.65085       -10.41497        -2.60757
   N       -3.94790        -9.45369        -1.78611
   C       -6.13870       -11.36356         0.50418
   C       -6.48413       -10.30772         1.35999
   C       -5.94496        -8.97703         1.19544
   N       -6.37927        -8.14950         2.15682
   S       -7.34047        -8.96636         3.14661
   N       -7.27035       -10.39232         2.43920
   C       -6.80494       -12.63519         0.64855
   C       -6.39118       -13.92899         0.63788
   C       -7.55185       -14.79729         0.82801
   N       -8.66764       -14.03466         0.87701
   C       -8.28795       -12.67526         0.76578
   O       -9.08690       -11.77906         0.71354
   C      -10.04006       -14.44832         0.76073
   C       -7.13966       -16.09944         0.84697
   C       -5.65743       -16.05363         0.60257
   O       -4.89736       -16.97905         0.49073
   N       -5.28667       -14.71151         0.54984
   C       -3.91448       -14.28513         0.52540
   C       -7.80665       -17.32411         1.07893
   C       -8.86089       -17.58070         1.90294
   C       -9.62151       -18.84880         1.73725
   O       -9.33594       -19.78321         1.02960
   C      -10.82966       -18.68970         2.58074
   C      -11.91076       -19.53676         2.69900
   C      -12.95745       -19.15455         3.53998
   C      -12.89569       -17.93069         4.23305
   C      -11.79098       -17.08499         4.11289
   C      -10.75014       -17.47383         3.28708
   C       -9.46914       -16.82791         2.97902
   C       -8.88402       -15.86051         3.75640
   C       -7.56787       -15.38299         3.60912
   N       -6.50149       -14.96017         3.56342
   C       -9.51955       -15.25129         4.86064
   N       -9.99858       -14.71347         5.75343
   C      -13.97711       -17.54604         5.06469
   N      -14.84723       -17.22483         5.73539
   C      -14.08798       -19.99411         3.68942
   N      -14.99437       -20.68518         3.79698
   H       -3.89357         2.70407        -0.16299
   H       -6.70002        -0.03956         2.91934
   H       -2.58382        -2.74386        -1.03161
   H       -7.42640        -6.39684         1.15437
   H       -7.56244        -6.50535        -0.61739
   H       -7.96109        -4.97708         0.21068
   H       -0.55395        -6.33413        -0.34433
   H       -0.99015        -4.71465         0.26222
   H       -1.09916        -5.07613        -1.47603
   H       -3.85594       -12.53603        -3.08548
   H       -3.04843       -10.15549        -3.46684
   H      -10.16779       -15.10931        -0.09871
   H      -10.63377       -13.54472         0.62064
   H      -10.38440       -14.96356         1.65801
   H       -3.29795       -15.17154         0.38390
   H       -3.65225       -13.80372         1.46919
   H       -3.76392       -13.58432        -0.29481
   H       -7.42127       -18.17929         0.53011
   H      -11.94606       -20.46865         2.15551
   H      -11.78193       -16.15274         4.65526
*
