# ORCA input file
# SCF done       -197.902756183754          0.000955128938
! CAM-B3LYP def2-SVP def2/J RIJCOSX Grid4 TightSCF
%maxcore 5000
%tddft
    Mode sTDDFT
    Ethresh 5.0
    maxcore 5000
end

%pal
  nprocs 6
  end
* xyz 0 1
   C        5.07320       -11.72371         7.91726
   C        5.80501       -12.21313         8.96500
   C        7.00595       -11.59319         9.34126
   C        7.45849       -10.49342         8.66483
   C        6.72847        -9.96145         7.58246
   C        7.18467        -8.81724         6.88911
   C        6.44664        -8.32242         5.84726
   C        5.23689        -8.96925         5.45731
   C        4.77112       -10.07208         6.11300
   C        5.50973       -10.59268         7.19970
   C        4.65660        -8.26506         4.29788
   O        3.61432        -8.49717         3.73069
   C        5.66449        -7.23054         3.92615
   C        6.64003        -7.15252         4.99869
   C        7.42728        -6.07259         5.30181
   C        7.37169        -4.83616         4.62497
   N        7.33262        -3.78233         4.17073
   C        8.33189        -6.04261         6.38186
   N        9.11063        -5.98350         7.22373
   C        5.61561        -6.62461         2.71611
   C        6.67004        -5.89033         2.06949
   C        6.35068        -4.77400         1.26592
   O        5.03735        -4.46507         1.16676
   C        4.66745        -3.29603         0.47341
   C        7.38014        -4.05792         0.67948
   C        8.71438        -4.43301         0.83223
   C        9.03942        -5.55215         1.63612
   C        8.00761        -6.26146         2.22469
   O       10.34813        -5.80326         1.83833
   C       10.72389        -6.96646         2.53554
   C        9.74578        -3.65548         0.19692
   C       10.95466        -4.08007        -0.35273
   C       11.75992        -2.98321        -0.83873
   N       12.94974        -3.21158        -1.39933
   C       13.34897        -4.46016        -1.50072
   C       14.66821        -4.68374        -2.13231
   O       15.38158        -3.77151        -2.50335
   C       15.04732        -6.09768        -2.29267
   C       14.28526        -7.11658        -1.88189
   C       12.98241        -6.95048        -1.20966
   O       12.35233        -7.89870        -0.78873
   C       12.52805        -5.54671        -1.06209
   N       11.35287        -5.34658        -0.51492
   C       11.14889        -1.73213        -0.67665
   S        9.59518        -1.93950         0.04888
   C       11.68134        -0.44807        -1.00226
   C       10.90105         0.72322        -0.83370
   O        9.63893         0.53222        -0.37506
   C        8.78342         1.64701        -0.24458
   C       11.44638         1.95523        -1.12843
   C       12.75304         2.08360        -1.61113
   C       13.54004         0.90755        -1.77340
   C       12.99428        -0.32479        -1.47102
   O       14.79179         1.07844        -2.24497
   C       15.64584        -0.04515        -2.33505
   C       13.37433         3.34391        -1.86585
   C       12.83645         4.55598        -2.18322
   C       13.63986         5.76060        -2.34020
   C       14.87043         5.98527        -1.78274
   C       15.59601         7.18437        -1.94043
   N       16.23180         8.13555        -2.03636
   C       15.55031         5.08932        -0.92935
   N       16.15686         4.43943        -0.20241
   C       12.86103         6.72672        -3.10088
   C       11.55721         6.19116        -3.29726
   C       10.59269         6.87560        -3.97904
   C       10.89741         8.14854        -4.51114
   C        9.94495         8.89970        -5.22745
   C       10.26391        10.12796        -5.73972
   C       11.54897        10.65989        -5.55649
   C       12.49701         9.95629        -4.86495
   C       12.20282         8.68804        -4.32445
   C       13.17960         7.95773        -3.60949
   C       11.46580         4.85821        -2.67310
   O       10.46673         4.16985        -2.61978
   H        4.14772       -12.19698         7.62339
   H        5.46271       -13.08031         9.50966
   H        7.57071       -11.99132        10.17093
   H        8.38077       -10.01035         8.95265
   H        8.11404        -8.36270         7.19541
   H        3.84759       -10.54162         5.80841
   H        4.69061        -6.73389         2.16083
   H        3.58402        -3.23580         0.56196
   H        4.94150        -3.35188        -0.58476
   H        5.11983        -2.40840         0.92469
   H        7.17137        -3.19517         0.06672
   H        8.22208        -7.13903         2.81392
   H       10.33681        -7.86515         2.04813
   H       10.39660        -6.93527         3.58094
   H       11.81144        -6.98699         2.50022
   H       16.00253        -6.26637        -2.77174
   H       14.60207        -8.14261        -2.01429
   H        7.81298         1.23959         0.03328
   H        8.70035         2.19570        -1.18630
   H        9.13208         2.32179         0.54233
   H       10.87264         2.85080        -0.97574
   H       13.56598        -1.22904        -1.58945
   H       16.59644         0.34339        -2.69540
   H       15.26464        -0.79043        -3.03703
   H       15.79009        -0.51342        -1.35854
   H       14.45707         3.28958        -1.83917
   H        9.60899         6.45035        -4.11337
   H        8.95687         8.48526        -5.36545
   H        9.52806        10.69632        -6.28877
   H       11.78411        11.63075        -5.96629
   H       13.48757        10.36186        -4.71995
   H       14.16144         8.38782        -3.49040
*
