# ORCA input file
# SCF done       -192.929868523216          0.000899007094
! CAM-B3LYP def2-SVP def2/J RIJCOSX Grid4 TightSCF
%maxcore 5000
%tddft
    Mode sTDDFT
    Ethresh 5.0
    maxcore 5000
end

%pal
  nprocs 6
  end
* xyz 0 1
   C       -3.75973         2.81979         4.67523
   C       -4.81789         3.30415         3.95136
   C       -6.06093         3.65063         4.51791
   N       -7.08293         3.96568         4.93439
   C       -4.80243         3.42684         2.54709
   N       -4.83162         3.50490         1.40203
   C       -3.81401         2.40037         6.07012
   C       -2.75477         1.47432         6.30435
   C       -2.58665         0.87260         7.51821
   C       -3.47634         1.18413         8.57124
   C       -4.52419         2.12421         8.34786
   C       -4.68018         2.72624         7.07831
   C       -5.39885         2.43186         9.40963
   C       -5.25099         1.83706        10.63298
   C       -4.22121         0.90968        10.85143
   C       -3.35309         0.59016         9.84282
   C       -1.95037         1.33068         5.07773
   O       -1.00990         0.59857         4.87769
   C       -2.50117         2.34849         4.13324
   C       -1.76589         2.73235         3.05795
   C       -1.86581         3.91433         2.28232
   C       -1.35565         4.09784         1.00773
   C       -1.58983         5.38313         0.52565
   C       -2.24748         6.20169         1.46176
   S       -2.59111         5.39017         2.91549
   C       -2.44286         7.48216         0.88577
   C       -1.91951         7.47340        -0.41654
   C       -1.35947         6.15660        -0.68486
   C       -0.74641         5.73939        -1.82859
   C       -0.58428         6.59104        -2.94229
   N       -0.45065         7.28709        -3.84322
   C       -0.22346         4.43592        -1.96991
   N        0.21167         3.38217        -2.08829
   C       -2.08600         8.69475        -1.07369
   C       -2.72463         9.62789        -0.28219
   S       -3.12803         8.98480         1.30475
   C       -3.07166        10.98040        -0.60819
   C       -2.95078        11.52373        -1.90038
   N       -3.27521        12.76218        -2.18152
   C       -3.73994        13.52074        -1.18569
   N       -3.89817        13.10881         0.07730
   C       -3.57204        11.87228         0.35512
   C       -4.10572        14.87821        -1.46016
   C       -4.07472        15.55578        -2.66233
   C       -4.51672        16.87092        -2.51427
   C       -4.87616        17.17211        -1.18568
   S       -4.67765        15.84868        -0.12836
   C       -5.30586        18.52123        -1.13078
   C       -5.22308        19.07608        -2.42647
   C       -4.71861        18.05573        -3.33513
   C       -4.47797        18.17866        -4.67081
   C       -4.67806        19.37825        -5.38953
   N       -4.81558        20.33445        -6.00569
   C       -3.99272        17.10251        -5.44622
   N       -3.60181        16.23671        -6.08765
   C       -5.63669        20.40126        -2.47999
   C       -6.03621        20.87451        -1.23619
   S       -5.87785        19.63266         0.01633
   C       -6.50185        22.12649        -0.78198
   C       -6.83987        23.26819        -1.45230
   C       -7.27151        24.49203        -0.79092
   C       -7.19825        24.77925         0.54798
   C       -7.63130        25.99542         1.11881
   N       -7.96938        26.95314         1.65422
   C       -6.66507        23.94612         1.55403
   N       -6.23464        23.34520         2.43358
   C       -7.74949        25.41055        -1.81676
   C       -7.55146        24.80755        -3.09024
   C       -6.95771        23.47217        -2.91975
   O       -6.66147        22.70661        -3.81236
   C       -7.89361        25.43718        -4.25214
   C       -8.46718        26.72659        -4.19164
   C       -8.67698        27.33572        -2.92057
   C       -8.30900        26.65883        -1.73532
   C       -9.25483        28.62075        -2.87084
   C       -9.60784        29.27432        -4.01999
   C       -9.39982        28.67392        -5.27082
   C       -8.84130        27.42729        -5.35496
   H       -1.78539         0.16569         7.67423
   H       -5.47583         3.44105         6.93570
   H       -6.19244         3.14348         9.23514
   H       -5.92771         2.07731        11.43919
   H       -4.11915         0.44981        11.82291
   H       -2.55847        -0.12313        10.00558
   H       -0.93998         2.07552         2.80034
   H       -0.87146         3.30912         0.46073
   H       -1.75369         8.89661        -2.07527
   H       -2.58827        10.93474        -2.73196
   H       -3.70544        11.56383         1.38555
   H       -3.74631        15.09163        -3.57397
   H       -5.66573        21.01265        -3.36452
   H       -6.61817        22.15827         0.29533
   H       -7.72790        24.95540        -5.20426
   H       -8.48540        27.14734        -0.79048
   H       -9.41185        29.07941        -1.90558
   H      -10.04946        30.25837        -3.97140
   H       -9.68451        29.20414        -6.16727
   H       -8.67852        26.95969        -6.31491
*
