# ORCA input file
# SCF done       -184.586378510435          0.000619393863
! CAM-B3LYP def2-SVP def2/J RIJCOSX Grid4 TightSCF
%maxcore 5000
%tddft
    Mode sTDDFT
    Ethresh 5.0
    maxcore 5000
end

%pal
  nprocs 6
  end
* xyz 0 1
   C       12.96817        -3.38447         3.47860
   C       11.83010        -4.09131         3.22923
   C       11.47688        -4.06505         1.84012
   C       12.33207        -3.33981         1.07408
   S       13.59442        -2.67856         2.03857
   C       10.29181        -4.88526         1.63846
   O        9.66628        -5.07048         0.59965
   C        9.96991        -5.45640         2.96144
   C       10.88680        -4.94028         3.95369
   C       10.92721        -5.11051         5.31478
   N       11.76420        -4.24511         6.13180
   O       11.67135        -3.05330         5.93953
   O       12.49811        -4.77759         6.92647
   N       10.22275        -6.07211         6.09723
   O        9.88172        -7.11099         5.56159
   O       10.00116        -5.78378         7.25336
   C        8.89741        -6.31349         3.10138
   N        8.12772        -6.60229         2.05159
   C        7.06802        -7.44794         2.01691
   S        6.53868        -8.30789         3.42786
   C        5.28170        -9.03188         2.48085
   N        4.40301        -9.92530         3.11446
   O        3.53046       -10.43003         2.43368
   O        4.58369       -10.12434         4.30076
   C        5.27602        -8.63716         1.17080
   C        6.30045        -7.71651         0.87356
   C        6.54763        -7.12138        -0.41201
   C        5.84571        -7.38036        -1.53275
   C        6.15965        -6.76077        -2.78566
   C        5.56088        -6.97541        -3.96910
   C        4.44892        -7.93584        -4.23266
   C        6.10174        -6.29293        -5.20616
   N        7.07818        -7.15861        -5.83293
   C        6.78579        -8.05276        -6.79132
   C        7.58081        -9.12283        -7.08421
   C        7.34238       -10.03264        -8.12122
   C        8.11539       -11.15055        -8.33396
   C        7.97641       -12.13661        -9.33474
   C        8.89157       -13.14743        -9.25582
   C        9.79601       -13.01253        -8.18241
   S        9.47056       -11.55771        -7.28681
   C       10.81799       -13.86767        -7.79051
   C       11.23047       -15.07948        -8.37052
   C       12.26177       -15.68291        -7.70233
   C       12.70513       -14.97575        -6.56691
   S       11.78024       -13.50676        -6.37449
   C       13.71038       -15.34409        -5.68535
   C       14.05177       -14.57479        -4.58393
   C       15.02608       -14.89157        -3.65239
   C       15.39228       -14.11320        -2.50239
   C       14.86482       -12.90241        -2.10700
   C       15.28811       -12.18652        -0.97142
   N       15.58233       -11.54238        -0.06585
   C       13.83889       -12.19223        -2.75831
   N       13.00748       -11.53757        -3.20948
   C       16.44990       -14.83469        -1.79467
   C       16.73076       -16.02980        -2.49954
   C       15.85417       -16.10812        -3.68964
   O       15.84120       -17.00481        -4.51218
   C       17.67715       -16.93138        -2.08230
   C       18.38303       -16.64097        -0.90872
   C       18.09592       -15.44578        -0.21164
   C       17.13707       -14.53220        -0.63561
   S       19.08055       -15.28371         1.21216
   C       19.85276       -16.80539         0.85443
   C       19.39956       -17.40475        -0.27139
  Br       21.18624       -17.45919         2.00165
   H       13.49596        -3.20880         4.39408
   H       12.30436        -3.16290         0.01760
   H        8.66279        -6.80380         4.03714
   H        8.42220        -6.13080         1.17545
   H        4.55059        -9.00844         0.47126
   H        7.36676        -6.41729        -0.47597
   H        5.02555        -8.07989        -1.50473
   H        6.97265        -6.04467        -2.74972
   H        4.15827        -8.48823        -3.34637
   H        4.75242        -8.65080        -4.99937
   H        3.57642        -7.39996        -4.60769
   H        6.59138        -5.35036        -4.94727
   H        5.30346        -6.09435        -5.92402
   H        7.89132        -7.36289        -5.26601
   H        5.88727        -7.85680        -7.36173
   H        8.45390        -9.29642        -6.46823
   H        6.50377        -9.86420        -8.78378
   H        7.20569       -12.07385       -10.08290
   H        8.93292       -13.98169        -9.93257
   H       10.76647       -15.47926        -9.25451
   H       12.71097       -16.61623        -7.99149
   H       14.23472       -16.27053        -5.86797
   H       13.49996       -13.65268        -4.44488
   H       17.86757       -17.83435        -2.64099
   H       16.95516       -13.63584        -0.06679
   H       19.76471       -18.34630        -0.63915
*
