# ORCA input file
# SCF done       -215.439835431456          0.000313301987
! CAM-B3LYP def2-SVP def2/J RIJCOSX Grid4 TightSCF
%maxcore 5000
%tddft
    Mode sTDDFT
    Ethresh 5.0
    maxcore 5000
end

%pal
  nprocs 6
  end
* xyz 0 1
   C       -3.36523        -1.39480        -1.18221
   C       -3.59412        -2.68277        -0.77891
   C       -2.70221        -3.75057        -1.01793
   N       -2.01423        -4.65476        -1.17951
   C       -4.76693        -3.14846        -0.14339
   N       -5.70036        -3.62020         0.32860
   C       -2.23575        -0.94907        -1.98707
   C       -2.47033         0.38725        -2.39290
   C       -1.59556         1.08281        -3.19265
   C       -0.43610         0.42647        -3.61506
   C       -0.20013        -0.90401        -3.19168
   C       -1.08349        -1.60576        -2.38084
   S        1.29902        -1.51504        -3.82140
   C        1.57596        -0.00029        -4.64326
   C        0.60043         0.91952        -4.45296
  Br        3.12695         0.21955        -5.67324
   C       -3.75486         0.86081        -1.84050
   O       -4.27062         1.93040        -2.07326
   C       -4.24449        -0.25136        -0.97544
   C       -5.24101        -0.20975        -0.04523
   C       -6.12887         0.84715         0.25858
   O       -6.20395         1.99770        -0.45295
   C       -7.05878         0.92242         1.28774
   C       -7.60047         0.21283         2.46005
   O       -7.31679        -0.85133         2.93721
   N       -8.56060         1.09193         2.95203
   C       -8.69104         2.29325         2.25243
   O       -9.45561         3.17740         2.53042
   C       -7.70292         2.16962         1.17491
   C       -7.13921         2.81498         0.07887
   C       -7.36308         4.09391        -0.48103
   C       -6.63603         4.53127        -1.54531
   C       -6.73205         5.79443        -2.15063
   S       -7.79322         7.07583        -1.66529
   C       -7.19667         8.17961        -2.86352
   C       -6.18879         7.56295        -3.62922
   C       -5.93845         6.22026        -3.23117
   N       -5.02217         5.46131        -3.84956
   C       -4.34407         6.00999        -4.82647
   C       -3.31140         5.17738        -5.50967
   C       -3.53805         3.68285        -5.29569
   O       -2.40601         2.99011        -5.79329
   C       -4.57689         7.37053        -5.21407
   C       -3.79974         8.01490        -6.32848
   N       -4.04805         7.31186        -7.58252
   N       -5.48321         8.11708        -4.63407
   C       -7.72194         9.48327        -2.95322
   C       -7.30507        10.39823        -3.87158
   C       -7.85052        11.69950        -3.94116
   O       -7.40317        12.56642        -4.88844
   C       -8.82675        12.34373        -3.19108
   C       -9.77411        12.19855        -2.08353
   O       -9.99791        11.26977        -1.35015
   N      -10.41527        13.43543        -2.03036
   C       -9.99364        14.36566        -2.97587
   O      -10.41793        15.48454        -3.09776
   C       -8.95621        13.64486        -3.72290
   C       -8.06610        13.74775        -4.77520
   C       -7.85758        14.82550        -5.66923
   C       -7.00119        14.79564        -6.71942
   C       -6.79932        15.86686        -7.62967
   C       -7.61897        16.89947        -7.96372
   C       -9.02307        17.18877        -7.73949
   C      -10.04648        16.28684        -7.61431
   C      -11.40855        16.65162        -7.55020
   N      -12.52867        16.89492        -7.50270
   C       -9.88289        14.88770        -7.62907
   N       -9.81558        13.74235        -7.66303
   C       -9.20286        18.62336        -7.94206
   C       -8.02271        19.15743        -8.51911
   C       -7.01746        18.08707        -8.64224
   O       -5.91794        18.14803        -9.14047
   C       -7.90459        20.48222        -8.86482
   C       -8.99608        21.32067        -8.61663
   C      -10.16195        20.78183        -8.01917
   C      -10.28519        19.44067        -7.67750
   S      -11.38062        21.99656        -7.78678
   C      -10.32689        23.19462        -8.49070
   C       -9.12192        22.71230        -8.87807
  Br      -10.91557        24.96761        -8.64620
   H       -1.79145         2.10054        -3.48942
   H       -0.85944        -2.61582        -2.08176
   H        0.59853         1.90160        -4.88945
   H       -5.39036        -1.07010         0.59532
   H       -9.11811         0.87995         3.76746
   H       -8.11972         4.70465        -0.01081
   H       -5.88955         3.87575        -1.97886
   H       -2.32647         5.43574        -5.10847
   H       -3.30246         5.40967        -6.57580
   H       -4.44646         3.37551        -5.82781
   H       -3.68241         3.47613        -4.22756
   H       -2.62400         2.05617        -5.86590
   H       -2.72969         7.93765        -6.11012
   H       -4.07562         9.08026        -6.35489
   H       -5.02645         7.39338        -7.83925
   H       -3.49790         7.72413        -8.32766
   H       -8.49734         9.74771        -2.24559
   H       -6.53477        10.14004        -4.58241
   H      -11.14148        13.63731        -1.35766
   H       -8.43786        15.70879        -5.44235
   H       -6.37550        13.92292        -6.84809
   H       -5.82153        15.91034        -8.10190
   H       -6.99848        20.86051        -9.31127
   H      -11.18770        19.07642        -7.21538
   H       -8.35263        23.31162        -9.32964
*
