# ORCA input file
# SCF done       -210.153572715283          0.000411799723
! CAM-B3LYP def2-SVP def2/J RIJCOSX Grid4 TightSCF
%maxcore 5000
%tddft
    Mode sTDDFT
    Ethresh 5.0
    maxcore 5000
end

%pal
  nprocs 6
  end
* xyz 0 1
   C       -5.46772        -0.43706        -4.45633
   C       -5.21124         0.23771        -5.62443
   C       -4.61952        -0.34641        -6.76326
   N       -4.14144        -0.75915        -7.72240
   C       -5.49206         1.59709        -5.87147
   N       -5.68665         2.69163        -6.16161
   C       -5.17052        -1.84756        -4.22124
   C       -5.57364        -2.18496        -2.90689
   C       -5.42704        -3.44709        -2.38617
   C       -4.85259        -4.42738        -3.20201
   C       -4.45110        -4.08174        -4.51377
   C       -4.60051        -2.80468        -5.04036
   S       -3.76461        -5.44167        -5.35109
   C       -4.02302        -6.44109        -3.94591
   C       -4.59379        -5.79327        -2.90300
  Br       -3.51619        -8.24671        -3.98873
   C       -6.14563        -0.99228        -2.24688
   O       -6.58426        -0.94391        -1.11703
   C       -6.06566         0.09527        -3.24973
   C       -6.49261         1.38244        -3.04581
   C       -7.05604         1.87241        -1.85354
   C       -7.45210         3.17480        -1.74598
   C       -8.00858         3.73900        -0.58366
   O       -8.37810         5.04857        -0.58255
   C       -8.87947         5.35954         0.64314
   C       -8.81220         4.23137         1.46475
   C       -8.26736         3.19432         0.67695
   O       -8.04166         1.93584         1.07490
   O       -9.16942         4.03137         2.74338
   C       -9.37736         6.66114         0.89715
   C       -9.31374         7.65673        -0.02809
   C       -9.76188         8.99999         0.10384
   C      -10.46306         9.49879         1.14755
   N      -10.88156        10.79308         1.33273
   C      -10.62515        11.92710         0.64816
   S       -9.53397        12.02092        -0.69214
   C       -9.77892        13.74327        -0.76924
   N       -9.08871        14.43401        -1.77542
   O       -9.24706        15.63649        -1.84782
   O       -8.39281        13.75705        -2.51039
   C      -10.66084        14.21258         0.15670
   C      -11.18379        13.19131         0.98128
   C      -12.16491        13.35372         1.99050
   C      -12.78393        14.50899         2.38065
   C      -13.74350        14.60421         3.40513
   C      -14.13097        13.64844         4.32194
   C      -15.10360        13.80326         5.33857
   C      -15.25951        12.72102         6.16217
   C      -14.40585        11.64918         5.84833
   S      -13.43165        12.04701         4.46228
   C      -14.17166        10.42349         6.45862
   C      -14.69778         9.80255         7.60106
   C      -14.04414         8.64515         7.94323
   C      -12.95021         8.32666         7.11403
   S      -12.86463         9.46253         5.80727
   C      -12.05952         7.25845         7.23234
   C      -10.88331         7.05923         6.53400
   C      -10.09112         7.93414         5.77644
   C       -9.25459         7.39084         4.70687
   O       -9.15535         6.21595         4.37082
   C       -8.65464         8.54771         4.01002
   C       -7.80842         8.58630         2.94111
   C       -7.47237         9.84020         2.37656
   C       -8.01600        11.02803         2.94151
   C       -7.71238        12.26895         2.35167
   C       -6.89427        12.33054         1.25689
   C       -6.34486        11.15721         0.70613
   C       -6.63019         9.93613         1.25423
   F       -5.54491        11.24257        -0.36179
   F       -6.62708        13.51635         0.69295
   C       -8.84322        10.95812         4.08871
   C       -9.14300         9.73672         4.62195
   C       -9.91450         9.35165         5.80323
   C      -10.26666        10.22586         6.81306
   C      -10.71652         9.80895         8.07727
   N      -11.06664         9.50810         9.12912
   C      -10.18591        11.62483         6.70966
   N      -10.21080        12.77285         6.65604
   H       -5.74556        -3.67083        -1.38008
   H       -4.27832        -2.59438        -6.04624
   H       -4.82373        -6.25716        -1.96121
   H       -6.39122         2.09274        -3.85666
   H       -7.16991         1.20333        -1.01462
   H       -7.34457         3.84699        -2.58801
   H       -8.30797         1.85609         2.00251
   H       -9.23100         4.86100         3.25655
   H       -9.81089         6.81555         1.87308
   H       -8.84780         7.41204        -0.97210
   H       -9.51521         9.64374        -0.72588
   H      -10.76781         8.85188         1.95653
   H      -11.46132        10.93025         2.15265
   H      -10.92211        15.25206         0.22711
   H      -12.48720        12.44238         2.46795
   H      -12.54668        15.43049         1.86913
   H      -14.23040        15.56487         3.51650
   H      -15.65936        14.71880         5.44159
   H      -15.94493        12.68121         6.98947
   H      -15.51956        10.22048         8.15420
   H      -14.28505         8.04871         8.80460
   H      -12.36440         6.47559         7.91474
   H      -10.51369         6.03793         6.51920
   H       -7.40061         7.68180         2.51766
   H       -8.11867        13.17892         2.76584
   H       -6.20778         9.04564         0.81651
   H       -9.21848        11.87589         4.51197
*
