# ORCA input file
# SCF done       -168.032400348529          0.000335973981
! CAM-B3LYP def2-SVP def2/J RIJCOSX Grid4 TightSCF
%maxcore 5000
%tddft
    Mode sTDDFT
    Ethresh 5.0
    maxcore 5000
end

%pal
  nprocs 6
  end
* xyz 0 1
   C      -13.10004         0.07155        -2.94617
   C      -12.04002        -0.50086        -3.60260
   C      -12.13940        -1.65984        -4.39706
   N      -12.17004        -2.61535        -5.03289
   C      -10.75057         0.06460        -3.63122
   N       -9.69962         0.51268        -3.75699
   C      -14.50354        -0.28303        -3.09057
   C      -15.28268         0.73275        -2.48331
   C      -16.65523         0.70309        -2.47668
   C      -17.28711        -0.38174        -3.09565
   C      -16.49894        -1.39356        -3.69297
   C      -15.10960        -1.36219        -3.70384
   S      -17.48448        -2.64303        -4.39097
   C      -18.92217        -1.79850        -3.88152
   C      -18.67941        -0.64142        -3.22157
  Br      -20.60775        -2.52520        -4.26732
   C      -14.39065         1.75009        -1.88805
   O      -14.73552         2.73307        -1.26120
   C      -13.02151         1.26070        -2.12754
   C      -11.88612         1.68983        -1.49272
   C      -11.61351         2.93844        -0.89661
   S      -10.42197         2.95553         0.38779
   C      -10.41635         4.68964         0.43184
   C      -11.31912         5.21512        -0.47553
   C      -11.97942         4.23778        -1.24501
   C      -12.84465         4.62003        -2.39531
   S      -12.30621         3.76736        -3.93950
   C      -12.86614         6.12597        -2.63113
   C      -12.98487         6.85104        -1.29955
   C      -11.67469         6.68299        -0.53373
   O      -11.83944         7.24158         0.75012
   C       -9.43279         5.39540         1.20668
   C       -8.52897         6.21150         0.59089
   C       -7.43169         6.92764         1.14921
   C       -6.60819         7.49856         0.22808
   C       -6.99622         7.27605        -1.11238
   S       -8.49064         6.35870        -1.16211
   C       -6.37709         7.58088        -2.30423
   C       -5.13965         8.21379        -2.57209
   C       -4.79890         8.21705        -3.88923
   C       -5.73823         7.58116        -4.74644
   S       -7.11832         7.04673        -3.79535
   C       -5.66941         7.43898        -6.10332
   C       -6.60880         6.75409        -6.91852
   S       -7.05376         7.51520        -8.43506
   C       -8.28617         6.32351        -8.72905
   C       -8.28207         5.35312        -7.74001
   C       -7.32379         5.57972        -6.73437
   C       -7.03434         4.51100        -5.72702
   C       -8.30494         3.72376        -5.42589
   C       -8.84651         3.10620        -6.72267
   N       -9.97374         2.20897        -6.54242
   C       -9.25613         4.21610        -7.69648
   C       -9.15996         6.40393        -9.85127
   C       -9.12451         7.38659       -10.77400
   C       -9.99123         7.53878       -11.91166
   C      -10.61770         6.58737       -12.61900
   C      -10.47592         5.11482       -12.39211
   C      -11.53314         6.93259       -13.77718
   N      -11.73663         8.32640       -14.06135
   C      -12.52385         9.10342       -13.24004
   C      -12.45530        10.42605       -13.14315
   H      -17.22663         1.49117        -2.01164
   H      -14.54739        -2.15606        -4.16737
   H      -19.44895         0.00322        -2.83776
   H      -11.07492         0.97274        -1.41112
   H      -13.86229         4.25525        -2.22679
   H      -11.04818         4.20799        -3.89519
   H      -13.70126         6.37328        -3.28703
   H      -11.94255         6.43871        -3.12747
   H      -13.79764         6.43299        -0.70412
   H      -13.17770         7.91316        -1.44561
   H      -10.88173         7.23002        -1.07508
   H      -11.03467         7.09571         1.26278
   H       -9.30239         5.14487         2.24961
   H       -7.28068         6.97087         2.21331
   H       -5.72119         8.05607         0.47265
   H       -4.53885         8.63531        -1.78595
   H       -3.88969         8.63873        -4.28065
   H       -4.89145         7.98963        -6.61822
   H       -6.60245         4.91183        -4.81342
   H       -6.29139         3.83406        -6.16424
   H       -9.05471         4.39345        -4.99427
   H       -8.09721         2.93303        -4.70271
   H       -8.04485         2.51104        -7.17830
   H      -10.74861         2.69639        -6.10021
   H       -9.71212         1.44395        -5.92821
   H      -10.22974         4.60736        -7.37893
   H       -9.39188         3.78268        -8.68837
   H       -9.91563         5.63626        -9.89903
   H       -8.40379         8.18489       -10.63379
   H      -10.11672         8.56778       -12.22600
   H       -9.49799         4.87654       -11.98045
   H      -10.60624         4.57577       -13.32922
   H      -11.23778         4.75691       -11.69896
   H      -12.51355         6.48417       -13.57271
   H      -11.14491         6.45584       -14.68592
   H      -10.93335         8.80431       -14.44567
   H      -13.27598         8.54336       -12.70040
   H      -11.71241        10.99603       -13.67531
   H      -13.15352        10.97805       -12.54390
*
