# ORCA input file
# SCF done       -170.781807697286          0.000507981650
! CAM-B3LYP def2-SVP def2/J RIJCOSX Grid4 TightSCF
%maxcore 5000
%tddft
    Mode sTDDFT
    Ethresh 5.0
    maxcore 5000
end

%pal
  nprocs 6
  end
* xyz 0 1
   C       -2.05077        12.88871        -3.44063
   C       -1.01187        13.09045        -2.56302
   C       -0.20382        14.24584        -2.55131
   N        0.48538        15.16174        -2.48231
   C       -0.55602        12.17157        -1.59720
   N       -0.09970        11.46892        -0.80912
   C       -2.42613        13.79712        -4.51929
   C       -3.41032        13.16787        -5.32109
   C       -3.95249        13.76177        -6.43385
   C       -3.51336        15.04850        -6.76502
   C       -2.53700        15.67363        -5.95385
   C       -1.98059        15.06720        -4.83400
   S       -2.14161        17.26137        -6.53856
   C       -3.27791        17.06651        -7.84669
   C       -3.92077        15.87455        -7.84791
  Br       -3.50768        18.45451        -9.08685
   C       -3.71919        11.84065        -4.75612
   O       -4.43025        10.99053        -5.25261
   C       -2.92538        11.73609        -3.51747
   C       -2.94318        10.70935        -2.61103
   C       -3.81271         9.59763        -2.49810
   S       -5.40352         9.71599        -3.29233
   C       -6.42010         9.00892        -2.03491
   C       -7.68960         9.41998        -1.77521
   S       -8.43860         8.47420        -0.54712
   C       -7.01826         7.52318        -0.36174
   C       -6.03876         7.91641        -1.21807
   S       -4.46772         7.14205        -1.34856
   C       -3.41607         8.50954        -1.73337
   C       -2.08021         8.35106        -1.27501
   C       -1.67724         7.45347        -0.33222
   C       -0.32771         7.34167         0.07181
   O        0.60946         8.08262        -0.59534
   C        1.79483         7.87079        -0.06941
   C        1.70639         6.97482         0.97209
   N        2.76907         6.50877         1.76192
   O        3.88540         6.91082         1.51180
   O        2.49822         5.71626         2.65898
   C        0.31681         6.61180         1.08662
   N       -0.12339         5.75245         2.03360
   C       -1.37150         5.31302         2.30424
   C       -1.64330         4.45645         3.33456
   C       -2.91559         3.94626         3.69824
   C       -2.89231         3.11941         4.77819
   C       -1.60502         2.92669         5.33070
   S       -0.41005         3.83154         4.42725
   C       -1.25267         2.15938         6.42280
   C       -2.09451         1.38014         7.25000
   C       -1.43821         0.73995         8.25392
   C       -0.03781         0.97482         8.28019
   S        0.40990         2.04859         6.96758
   C        0.84650         0.45220         9.18450
   C        2.23556         0.66393         9.23856
   S        3.15663         1.67060         8.13204
   C        4.65901         1.35966         8.90082
   C        4.49172         0.51502         9.97394
   C        3.12877         0.13156        10.15395
   O        2.99470        -0.69529        11.21090
   C        4.25342        -0.84450        11.70725
   N        4.41710        -1.67652        12.84086
   O        5.55100        -1.79418        13.26585
   O        3.43111        -2.20791        13.30342
   C        5.20366        -0.14530        11.01288
   H       -4.69545        13.25284        -7.02762
   H       -1.23964        15.58616        -4.24944
   H       -4.65239        15.58806        -8.58113
   H       -2.19672        10.76789        -1.83223
   H       -8.23107        10.21026        -2.25309
   H       -6.99052         6.72053         0.34650
   H       -1.31904         8.98493        -1.70244
   H       -2.40170         6.81185         0.14023
   H        2.64550         8.38349        -0.47514
   H        0.63269         5.40675         2.63679
   H       -2.18048         5.65870         1.68280
   H       -3.80243         4.20922         3.14988
   H       -3.76204         2.64418         5.19409
   H       -3.15429         1.31486         7.08161
   H       -1.90821         0.10355         8.98243
   H        0.45211        -0.20026         9.95255
   H        5.55504         1.80757         8.52474
   H        6.25131        -0.12049        11.22977
*
