# ORCA input file
# SCF done       -195.744049052689          0.000717055115
! CAM-B3LYP def2-SVP def2/J RIJCOSX Grid4 TightSCF
%maxcore 5000
%tddft
    Mode sTDDFT
    Ethresh 5.0
    maxcore 5000
end

%pal
  nprocs 6
  end
* xyz 0 1
   C       11.88901        -1.21282        -9.15871
   C       11.72202        -0.82408       -10.45231
   S       10.04720        -0.68326       -10.84049
   C        9.56080        -1.15018        -9.25434
   C       10.64408        -1.39919        -8.47466
   C       10.90958        -1.81706        -7.09700
   O       10.09177        -2.06733        -6.22922
   C       12.37870        -1.87174        -6.97464
   C       12.97985        -1.50177        -8.24723
   C       14.30585        -1.42872        -8.58333
   C       14.70678        -1.05346        -9.88324
   N       15.04675        -0.75048       -10.93623
   C       15.39751        -1.70339        -7.73647
   N       16.33047        -1.91268        -7.10058
   C       13.07285        -2.21336        -5.84305
   C       12.61579        -2.60068        -4.57317
   C       13.50602        -2.92131        -3.53901
   C       12.85715        -3.29232        -2.37847
   C       11.44701        -3.25803        -2.51886
   S       10.93519        -2.76706        -4.06812
   C       10.87267        -3.66115        -1.29301
   C       11.90826        -3.95026        -0.37645
   C       13.18811        -3.73176        -1.03092
   C       14.43102        -3.91638        -0.50318
   C       15.60609        -3.67068        -1.24600
   N       16.56394        -3.47100        -1.84334
   C       14.63462        -4.37799         0.81566
   N       14.81687        -4.76262         1.87964
   C       11.43529        -4.36141         0.86144
   C       10.04529        -4.39843         0.90439
   S        9.32252        -3.91126        -0.62475
   C        9.19642        -4.78888         1.97650
   C        9.64188        -5.14293         3.27564
   C        8.74175        -5.59194         4.30414
   N        9.24126        -5.91430         5.51693
   C       10.50883        -5.80910         5.74313
   C       11.39607        -5.35445         4.73100
   N       10.95936        -5.04359         3.55563
   F       12.69463        -5.22697         4.96431
   F       10.95281        -6.13116         6.94964
   C        7.34414        -5.70713         4.09311
   C        6.89980        -5.30504         2.81467
   C        7.79888        -4.85767         1.78700
   N        7.14613        -4.54120         0.66769
   S        5.57376        -4.77560         0.88012
   N        5.63291        -5.29443         2.39737
   C        6.41336        -6.19646         5.05061
   C        6.65186        -6.68116         6.33280
   C        5.48740        -7.10477         6.95692
   C        4.34133        -6.93834         6.14878
   S        4.70783        -6.26230         4.62414
   C        3.21935        -7.41250         6.86162
   C        3.64943        -7.89018         8.12257
   C        5.08604        -7.68928         8.22848
   C        5.88361        -7.96805         9.29739
   C        7.27725        -7.73831         9.28030
   N        8.41017        -7.56558         9.28108
   C        5.38226        -8.48168        10.51414
   N        5.00026        -8.87345        11.52103
   C        2.62168        -8.42837         8.88264
   C        1.39678        -8.36480         8.22787
   S        1.54421        -7.59412         6.64050
   C        0.09524        -8.74991         8.60774
   C       -0.33355        -9.55775         9.62477
   C        0.49777       -10.45289        10.48276
   O        1.70374       -10.55808        10.50311
   C       -0.46974       -11.23655        11.25983
   C       -0.42640       -12.22184        12.19215
   S       -2.01890       -12.67543        12.67232
   C       -2.74905       -11.53163        11.60876
   C       -1.80150       -10.83667        10.92041
   C       -1.74021        -9.78366         9.92817
   C       -2.83573        -9.12083         9.43810
   C       -4.14007        -9.46838         9.84885
   N       -5.20809        -9.74036        10.16806
   C       -2.82583        -8.04850         8.52519
   N       -2.89172        -7.16497         7.79384
   H       12.45593        -0.61064       -11.20330
   H        8.52069        -1.20985        -9.00365
   H       14.15431        -2.19388        -5.91325
   H       14.57303        -2.87561        -3.66860
   H       12.04076        -4.62867         1.70661
   H        7.63783        -6.71368         6.75608
   H        2.73598        -8.85945         9.86005
   H       -0.67575        -8.34503         7.96171
   H        0.42731       -12.70233        12.62625
   H       -3.81723       -11.45858        11.56639
*
