# ORCA input file
# SCF done       -216.554946889085          0.000536127329
! CAM-B3LYP def2-SVP def2/J RIJCOSX Grid4 TightSCF
%maxcore 5000
%tddft
    Mode sTDDFT
    Ethresh 5.0
    maxcore 5000
end

%pal
  nprocs 6
  end
* xyz 0 1
   C        2.70861         8.24290        -2.81441
   C        1.53150         7.73945        -2.33044
   C        1.51861         6.53691        -1.60772
   C        2.68226         5.85430        -1.37950
   C        3.91215         6.34384        -1.86494
   C        5.11548         5.63964        -1.63434
   C        6.29783         6.14774        -2.10240
   C        6.30122         7.37050        -2.83332
   C        5.15362         8.06602        -3.08314
   C        3.92487         7.56633        -2.59622
   C        7.68202         7.69787        -3.22015
   O        8.07144         8.61000        -3.90964
   C        8.53727         6.67537        -2.53699
   C        7.66547         5.64361        -2.01662
   C        7.99446         4.35530        -1.67585
   C        9.26512         3.76574        -1.81237
   N       10.25792         3.19491        -1.90366
   C        7.08350         3.43201        -1.12823
   N        6.41286         2.65590        -0.60954
   C        9.86320         6.95564        -2.42386
   C       10.84803         6.39292        -1.57475
   C       10.67174         5.63080        -0.44908
   C       11.87268         5.24702         0.17400
   C       12.10625         4.34485         1.23730
   C       13.44121         4.27960         1.69574
   C       14.45096         4.95068         0.95787
   N       14.25677         5.65220        -0.13624
   C       13.00109         5.81379        -0.49203
   S       12.54775         6.72945        -1.88431
   S       16.04382         4.73893         1.62744
   C       15.35445         3.83304         2.94151
   C       14.01051         3.66488         2.85099
   F       13.29466         3.07017         3.81793
   F       16.13288         3.39457         3.92083
   C       11.10759         3.41857         1.70734
   C        9.71683         3.51478         1.82160
   C        9.10422         2.28786         2.26334
   N        7.79641         2.18627         2.49187
   C        7.06038         3.24391         2.24553
   C        5.60432         3.15643         2.52084
   O        5.08758         2.19478         3.04123
   C        4.83016         4.35754         2.14591
   C        5.37141         5.46206         1.62245
   C        6.80461         5.59453         1.32373
   O        7.26067         6.54195         0.71297
   C        7.64721         4.44930         1.74816
   N        8.94350         4.58115         1.57827
   C       10.01797         1.24316         2.42772
   S       11.60396         1.79258         2.07285
   C        9.70503        -0.07841         2.82433
   C       10.58864        -1.11794         2.97891
   C        9.95815        -2.30212         3.40812
   C       10.51154        -3.57455         3.64881
   C        9.63227        -4.55839         4.11211
   C        8.25033        -4.24298         4.20122
   N        7.71526        -3.07602         3.92384
   C        8.55115        -2.12675         3.55523
   S        8.04304        -0.51234         3.17607
   S        7.29125        -5.59586         4.73346
   C        8.73970        -6.54799         4.89874
   C        9.87465        -5.89216         4.55257
   F       11.10092        -6.42326         4.67833
   F        8.65866        -7.79506         5.34525
   C       11.92201        -3.76785         3.38398
   C       12.47114        -4.77587         2.68029
   C       13.89471        -4.94428         2.40355
   C       14.82713        -3.94432         2.39147
   C       16.19224        -4.14873         2.09643
   N       17.31104        -4.26608         1.87216
   C       14.51306        -2.58042         2.57546
   N       14.28648        -1.45793         2.66367
   C       14.09585        -6.32787         2.00761
   C       12.81986        -6.93569         1.81288
   C       12.69878        -8.23359         1.40675
   C       13.86593        -8.99749         1.18342
   C       13.80085       -10.34149         0.76621
   C       14.94356       -11.06451         0.55533
   C       16.20188       -10.47558         0.75203
   C       16.30066        -9.17273         1.15780
   C       15.14421        -8.39831         1.38419
   C       15.24093        -7.05125         1.79856
   C       11.75736        -5.96377         2.11487
   O       10.56873        -6.07961         1.92248
   H        2.72414         9.16818        -3.37126
   H        0.60384         8.26449        -2.50183
   H        0.58125         6.15330        -1.23385
   H        2.67841         4.92546        -0.82754
   H        5.06762         4.71620        -1.07903
   H        5.18257         8.98783        -3.64475
   H       10.19751         7.78362        -3.04305
   H        9.70930         5.44973        -0.00664
   H        3.76645         4.28789         2.33037
   H        4.76613         6.31968         1.35967
   H       11.64492        -1.01502         2.79774
   H       12.56115        -2.97593         3.75294
   H       11.72361        -8.67391         1.26143
   H       12.82984       -10.78993         0.61619
   H       14.88442       -12.09405         0.23581
   H       17.09308       -11.06022         0.58041
   H       17.26681        -8.71427         1.30895
   H       16.21968        -6.62328         1.95068
*
