# ORCA input file
# SCF done       -254.748822590731          0.000451068338
! CAM-B3LYP def2-SVP def2/J RIJCOSX Grid4 TightSCF
%maxcore 5000
%tddft
    Mode sTDDFT
    Ethresh 5.0
    maxcore 5000
end

%pal
  nprocs 6
  end
* xyz 0 1
   C        4.84957         7.72116        -3.57211
   C        5.31742         8.98669        -3.34298
   C        6.31314         9.21036        -2.38032
   C        6.82810         8.16641        -1.66095
   C        6.36985         6.85008        -1.87132
   C        6.89527         5.76806        -1.12799
   C        6.42839         4.50335        -1.36307
   C        5.42740         4.28040        -2.35462
   C        4.89579         5.30822        -3.07900
   C        5.35876         6.62360        -2.85035
   C        5.13449         2.83944        -2.43864
   O        4.30525         2.27774        -3.11399
   C        6.14875         2.18852        -1.55255
   C        6.75489         3.22479        -0.74293
   C        7.28263         3.05796         0.51048
   C        7.30431         1.81171         1.16863
   N        7.29851         0.81201         1.73299
   C        7.76464         4.11911         1.30297
   N        8.18444         4.95054         1.97340
   C        6.41618         0.86898        -1.72991
   C        7.55854         0.10426        -1.39246
   C        7.64365        -1.27658        -1.49811
   C        8.91715        -1.75228        -1.20493
   C        9.82714        -0.72029        -0.89782
   S        9.10893         0.81904        -0.95956
   C       11.10261        -1.29521        -0.66123
   C       10.99396        -2.68790        -0.81248
   C        9.63073        -3.01704        -1.19730
   C        9.17858        -4.24275        -1.59157
   C       10.07261        -5.32710        -1.70086
   N       10.84953        -6.16201        -1.82611
   C        7.84151        -4.47444        -1.97777
   N        6.75548        -4.66403        -2.29037
   C       12.19620        -3.35587        -0.59464
   C       13.23128        -2.48380        -0.31873
   S       12.68997        -0.81200        -0.27116
   C       14.62840        -2.78334        -0.16640
   C       15.39434        -1.84169         0.67834
   C       16.52907        -1.17790         0.21139
   C       17.23193        -0.28641         1.01057
   C       16.79885        -0.02226         2.30835
   C       15.66006        -0.65960         2.79299
   C       14.97563        -1.55550         1.97841
   F       13.89772        -2.17715         2.46665
   F       15.22612        -0.41109         4.02422
   F       17.46231         0.83946         3.06875
   F       18.32248         0.31706         0.53559
   F       16.96071        -1.40641        -1.03385
   C       15.22783        -3.84138        -0.79838
   C       14.51125        -4.65024        -1.80934
   C       13.89588        -4.07485        -2.92127
   C       13.24233        -4.84601        -3.87290
   C       13.20821        -6.23278        -3.74379
   C       13.82905        -6.83344        -2.65233
   C       14.46565        -6.04106        -1.70309
   F       15.03275        -6.63355        -0.64718
   F       13.81968        -8.15572        -2.51989
   F       12.59686        -6.97195        -4.66139
   F       12.64635        -4.25781        -4.91165
   F       13.92454        -2.74683        -3.07864
   C       16.59524        -4.21878        -0.57303
   C       17.37039        -4.02331         0.55361
   C       18.68603        -4.43893         0.36261
   C       18.90714        -4.99235        -0.90985
   S       17.50466        -4.96996        -1.87693
   C       20.26018        -5.40745        -0.99005
   C       20.89571        -5.11170         0.23620
   C       19.93855        -4.44520         1.10345
   C       20.16444        -3.82816         2.29907
   C       21.41938        -3.81973         2.94549
   N       22.43018        -3.79173         3.48411
   C       19.13571        -3.08266         2.91142
   N       18.27981        -2.45170         3.34234
   C       22.23178        -5.49422         0.26468
   C       22.63091        -6.07970        -0.92884
   S       21.31506        -6.12701        -2.10824
   C       23.87905        -6.56653        -1.37713
   C       25.00518        -6.88348        -0.67479
   C       26.25938        -7.28973        -1.29060
   C       26.62788        -7.08869        -2.59521
   C       27.87479        -7.47670        -3.13021
   N       28.86626        -7.77159        -3.62763
   C       25.84853        -6.43454        -3.57280
   N       25.28151        -5.89666        -4.41446
   C       27.10220        -7.86351        -0.25113
   C       26.43310        -7.72740         0.99833
   C       26.98635        -8.16951         2.16575
   C       28.25805        -8.78387         2.13478
   C       28.87995        -9.25929         3.30595
   C       30.11004        -9.85692         3.25107
   C       30.77243       -10.00426         2.02313
   C       30.19633        -9.55259         0.86701
   C       28.93068        -8.93205         0.88692
   C       28.33341        -8.46199        -0.30489
   C       25.12911        -7.07631         0.79599
   O       24.31723        -6.81108         1.65604
   H        4.08299         7.54276        -4.31183
   H        4.92324         9.82179        -3.90228
   H        6.67030        10.21504        -2.21114
   H        7.59230         8.33447        -0.91644
   H        7.66636         5.96325        -0.39876
   H        4.13238         5.12076        -3.81932
   H        5.67441         0.33206        -2.31541
   H        6.80030        -1.88927        -1.76143
   H       12.30835        -4.42329        -0.59421
   H       16.98114        -3.64085         1.47779
   H       22.89309        -5.37215         1.10278
   H       23.91520        -6.72539        -2.44913
   H       26.45929        -8.05087         3.10076
   H       28.36530        -9.14310         4.24843
   H       30.57924       -10.21957         4.15328
   H       31.74244       -10.47758         1.99764
   H       30.70296        -9.66211        -0.08061
   H       28.86429        -8.59504        -1.23411
*
