# ORCA input file
# SCF done       -205.887250959751          0.000998825279
! CAM-B3LYP def2-SVP def2/J RIJCOSX Grid4 TightSCF
%maxcore 5000
%tddft
    Mode sTDDFT
    Ethresh 5.0
    maxcore 5000
end

%pal
  nprocs 6
  end
* xyz 0 1
   C       -5.96264        -0.85998        -4.87455
   C       -5.76661        -0.46599        -6.17213
   C       -5.56131        -1.35672        -7.24686
   N       -5.39667        -2.02703        -8.16418
   C       -5.71702         0.86993        -6.62372
   N       -5.65202         1.92403        -7.07565
   C       -5.93902        -2.23306        -4.39320
   C       -6.04855        -2.22042        -2.98086
   C       -6.05605        -3.37015        -2.22822
   C       -5.94967        -4.59120        -2.89998
   C       -5.84589        -4.59497        -4.31214
   C       -5.83867        -3.43299        -5.07356
   S       -5.73689        -6.21376        -4.92940
   C       -5.82330        -6.85685        -3.32603
   C       -5.93210        -5.91113        -2.36761
   C       -6.15925        -0.83076        -2.49924
   O       -6.29238        -0.48724        -1.34587
   C       -6.15921         0.01501        -3.72602
   C       -6.50623         1.32607        -3.80172
   C       -6.67973         2.27521        -2.73433
   C       -7.64989         3.26895        -2.91238
   C       -7.87314         4.16503        -1.88657
   C       -7.10978         4.11363        -0.68834
   C       -6.09850         3.16584        -0.55342
   C       -5.89439         2.25781        -1.56510
   C       -7.62202         5.14126         0.15871
   C       -8.67393         5.76786        -0.56348
   N       -8.79010         5.18375        -1.79998
   C       -9.73560         5.54285        -2.81863
   C       -9.42117         6.78138         0.00210
   C       -9.12205         7.18647         1.30709
   C       -8.05889         6.58213         2.01258
   C       -7.31806         5.57184         1.44858
   C       -9.93206         8.19001         1.93691
   C       -9.87639         8.70023         3.23513
   C      -10.93200         9.64952         3.52052
   N      -11.02941        10.21927         4.72584
   C      -10.14314         9.88578         5.63438
   C      -10.28543        10.51609         6.96546
   O      -11.18808        11.28631         7.23279
   C       -9.25653        10.13310         7.94552
   C       -8.26935         9.27020         7.68138
   C       -8.08995         8.59814         6.38133
   O       -7.18212         7.81803         6.17802
   C       -9.09304         8.95428         5.35078
   N       -8.97579         8.38527         4.17417
   C      -11.78759         9.87424         2.44021
   S      -11.26700         8.91561         1.09861
   C      -12.96190        10.69543         2.37283
   C      -13.43538        11.31901         3.53075
   C      -14.60311        12.05315         3.44630
   C      -15.30625        12.18377         2.21763
   C      -14.80924        11.57638         1.06562
   C      -13.65400        10.84130         1.15087
   C      -16.47181        12.95197         2.50169
   C      -16.42164        13.25294         3.88982
   N      -15.28208        12.72249         4.43177
   C      -14.92003        12.80046         5.82035
   C      -17.43519        13.96849         4.50384
   C      -18.54085        14.33299         3.73800
   C      -18.57154        14.06028         2.35500
   C      -17.54642        13.39097         1.73324
   C      -19.65322        15.00026         4.37090
   C      -20.96418        14.85770         4.07282
   C      -21.65757        13.90011         3.22626
   C      -21.28419        12.60269         3.00065
   C      -22.03323        11.69606         2.22338
   N      -22.59814        10.93097         1.58030
   C      -20.15942        11.99176         3.59488
   N      -19.31087        11.41738         4.11203
   C      -22.94552        14.48625         2.88103
   C      -23.15104        15.63914         3.68374
   C      -21.96194        15.86833         4.52612
   O      -21.79808        16.72007         5.36888
   C      -24.30533        16.38248         3.61817
   C      -25.29333        15.97911         2.71492
   C      -25.07003        14.83740         1.90741
   C      -23.90831        14.07849         1.97791
   S      -26.41924        14.53508         0.85880
   C      -27.25645        15.90565         1.50107
   C      -26.56394        16.56606         2.45432
   H       -6.14055        -3.32544        -1.15344
   H       -5.76489        -3.48873        -6.14676
   H       -5.78924        -7.92149        -3.19912
   H       -5.99963        -6.12405        -1.31609
   H       -6.74256         1.71717        -4.78513
   H       -8.23549         3.29051        -3.81944
   H       -5.49132         3.14148         0.33780
   H       -5.10486         1.53140        -1.47704
   H      -10.00834         6.59130        -2.71003
   H      -10.64217         4.93308        -2.75357
   H       -9.28664         5.40246        -3.80166
   H      -10.23758         7.24563        -0.53123
   H       -7.84772         6.92079         3.01320
   H       -6.51649         5.10823         2.00188
   H       -9.35125        10.59818         8.91770
   H       -7.53405         9.01263         8.43201
   H      -12.89542        11.19971         4.45477
   H      -15.33277        11.67629         0.12732
   H      -13.25767        10.35549         0.27101
   H      -14.95967        13.83757         6.15867
   H      -13.90821        12.42693         5.95991
   H      -15.60445        12.20446         6.42978
   H      -17.41614        14.18297         5.56103
   H      -19.41176        14.41463         1.77549
   H      -17.57831        13.19329         0.67273
   H      -19.41955        15.73139         5.13813
   H      -24.44176        17.24889         4.24656
   H      -23.77721        13.21933         1.34071
   H      -28.23164        16.13547         1.11784
   H      -26.92597        17.44006         2.96475
*
