# ORCA input file
# SCF done       -197.558560266475          0.000555005176
! CAM-B3LYP def2-SVP def2/J RIJCOSX Grid4 TightSCF
%maxcore 5000
%tddft
    Mode sTDDFT
    Ethresh 5.0
    maxcore 5000
end

%pal
  nprocs 6
  end
* xyz 0 1
   C        0.61037         4.44641         0.33891
   C        1.25330         3.29116        -0.02043
   C        2.65361         3.11865         0.02492
   N        3.78257         2.91251         0.03693
   C        0.63551         2.11428        -0.49438
   N        0.21386         1.12246        -0.89087
   C        1.26290         5.66428         0.80628
   C        0.27232         6.65201         1.04230
   C        0.57339         7.91601         1.49043
   C        1.91760         8.22278         1.71922
   C        2.90120         7.23150         1.48287
   C        2.59589         5.95351         1.02860
   S        4.49140         7.82886         1.83337
   C        3.84145         9.36684         2.28322
   C        2.49625         9.43883         2.17896
   C       -1.04796         6.09090         0.73569
   O       -2.11947         6.66860         0.81915
   C       -0.82173         4.70154         0.31469
   C       -1.79924         3.80182        -0.01265
   C       -3.19754         3.95370        -0.05610
   C       -4.03958         2.88716        -0.39116
   C       -5.37636         3.24109        -0.36924
   C       -5.56042         4.59799        -0.02161
   S       -4.10332         5.42507         0.28333
   C       -6.95443         4.86080        -0.01410
   C       -7.64657         3.68229        -0.35150
   C       -6.67732         2.62912        -0.60577
   C       -6.92675         1.35165        -1.00859
   C       -5.89020         0.41471        -1.21264
   N       -5.05484        -0.35271        -1.37694
   C       -8.22796         0.87652        -1.28463
   N       -9.26970         0.47479        -1.54248
   C       -9.03299         3.83825        -0.32417
   C       -9.38456         5.12919         0.01672
   S       -7.99913         6.16589         0.31026
   C      -10.67792         5.70122         0.18921
   C      -11.96915         5.19703         0.11763
   C      -12.38518         3.81191        -0.18604
   O      -11.85993         2.84512         0.28657
   O      -13.40677         3.69548        -1.05470
   C      -12.78258         6.33194         0.43996
   N      -12.02213         7.38722         0.64363
   O      -10.74238         7.01207         0.47916
   C      -14.20089         6.42896         0.65496
   C      -14.88484         7.60723         0.86746
   C      -16.22925         7.37705         1.16660
   C      -16.55276         6.01012         1.19130
   S      -15.21858         5.01306         0.83669
   C      -17.92202         5.87031         1.54391
   C      -18.45746         7.15513         1.74488
   C      -17.41512         8.14275         1.51491
   C      -17.53233         9.49496         1.64250
   C      -16.45931        10.37715         1.39355
   N      -15.59640        11.10031         1.17934
   C      -18.75117        10.09172         2.03030
   N      -19.74841        10.56185         2.34524
   C      -19.78465         7.12759         2.15890
   C      -20.26673         5.83424         2.28091
   S      -19.05928         4.63916         1.83181
   C      -21.55486         5.40268         2.68083
   C      -22.48158         6.07173         3.41483
   C      -22.43571         7.27487         4.22381
   C      -21.35910         7.75587         4.92228
   C      -21.42142         8.85642         5.80363
   N      -21.41449         9.74171         6.53328
   C      -20.08524         7.15561         4.92941
   N      -19.03864         6.68782         4.99540
   C      -23.81048         7.72801         4.39777
   C      -24.68919         6.71308         3.93573
   C      -23.89994         5.60213         3.38040
   O      -24.29342         4.54704         2.94026
   C      -26.05622         6.83075         4.01867
   C      -26.57868         8.00484         4.56919
   C      -25.69261         9.02040         5.00619
   C      -24.31000         8.90014         4.93080
   S      -26.56014        10.38349         5.63587
   C      -28.06899         9.59829         5.32405
   C      -27.93872         8.37284         4.77019
   H       -0.20552         8.64333         1.65913
   H        3.38279         5.23639         0.86610
   H        4.51807        10.13512         2.60356
   H        1.91961        10.31457         2.41561
   H       -1.47911         2.80124        -0.27722
   H       -3.65862         1.90986        -0.62986
   H       -9.74879         3.05915        -0.51091
   H      -13.69777         4.54032        -1.42280
   H      -14.40172         8.56497         0.80993
   H      -20.39115         7.99753         2.33374
   H      -21.87351         4.43097         2.31545
   H      -26.70188         6.03967         3.67032
   H      -23.67310         9.70184         5.26644
   H      -28.97589        10.11157         5.57857
   H      -28.76642         7.73920         4.50786
*
