# ORCA input file
# SCF done       -211.973811334711          0.000637469840
! CAM-B3LYP def2-SVP def2/J RIJCOSX Grid4 TightSCF
%maxcore 5000
%tddft
    Mode sTDDFT
    Ethresh 5.0
    maxcore 5000
end

%pal
  nprocs 6
  end
* xyz 0 1
   C       -3.04419         2.40412         7.60509
   C       -2.35768         1.22190         7.73463
   C       -1.25878         1.03637         8.59849
   N       -0.36047         0.81739         9.27934
   C       -2.62589         0.02948         7.03245
   N       -2.77164        -0.98068         6.50420
   C       -2.73614         3.63615         8.32677
   C       -3.62446         4.65054         7.89329
   C       -3.59284         5.93015         8.38978
   C       -2.63752         6.22475         9.36864
   C       -1.75485         5.20605         9.79813
   C       -1.78614         3.91194         9.29188
   S       -0.65881         5.78256        11.01712
   C       -1.39199         7.36237        10.93428
   C       -2.40477         7.45601        10.04036
  Br       -0.75146         8.73793        12.03667
   C       -4.53607         4.09079         6.87859
   O       -5.41315         4.69592         6.28863
   C       -4.17319         2.67669         6.74009
   C       -4.82948         1.75435         5.96062
   C       -5.93734         1.89841         5.11824
   C       -6.51071         0.79950         4.45670
   C       -7.60809         1.11584         3.69322
   C       -7.88881         2.49337         3.74647
   S       -6.80565         3.37292         4.74588
   C       -9.01116         2.94820         3.02503
   C       -9.77305         1.99547         2.33692
  Ge       -8.94886         0.22062         2.55975
   C       -8.19819        -0.50641         0.87398
   C      -10.08256        -1.07196         3.54853
   C      -10.86359         2.56386         1.70756
   C      -10.94992         3.94391         1.88271
   S       -9.63180         4.54644         2.85065
   C      -11.95809         4.80875         1.38160
   C      -11.86516         6.21387         1.50430
   C      -12.87468         7.10126         1.00703
   N      -12.70450         8.43171         1.13885
   C      -11.64181         8.89025         1.71601
   C      -10.64679         8.01115         2.21660
   N      -10.77335         6.72906         2.10292
   F       -9.55430         8.48057         2.81064
   F      -11.50801        10.20865         1.82050
   C      -14.05894         6.63994         0.38945
   C      -14.16245         5.23301         0.26311
   C      -13.12771         4.33782         0.73538
   N      -13.43890         3.06344         0.49815
   S      -14.86408         2.98933        -0.23543
   N      -15.17121         4.56333        -0.29469
   C      -15.06513         7.53450        -0.06124
   C      -16.32191         7.20359        -0.56326
   C      -17.08185         8.30246        -0.91730
   C      -16.39517         9.50198        -0.69808
   S      -14.82724         9.26033        -0.02492
   C      -17.05836        10.69711        -1.03835
   C      -18.35326        10.60517        -1.56068
  Ge      -18.87975         8.70555        -1.61473
   C      -19.20824         8.02715        -3.45020
   C      -20.32867         8.28633        -0.32914
   C      -18.86937        11.84571        -1.88162
   C      -18.01259        12.90600        -1.59206
   S      -16.50045        12.31775        -0.93244
   C      -18.25871        14.25642        -1.90195
   C      -17.57535        15.38020        -1.53557
   C      -16.61062        15.63780        -0.49215
   C      -16.59309        15.05692         0.75057
   C      -15.69680        15.42336         1.77307
   N      -14.97931        15.68758         2.62937
   C      -17.55613        14.11555         1.16715
   N      -18.36301        13.39372         1.54980
   C      -15.86632        16.83285        -0.87679
   C      -16.52067        17.43384        -1.98185
   C      -17.67280        16.59742        -2.37984
   O      -18.48991        16.82225        -3.24437
   C      -16.07850        18.60271        -2.55124
   C      -14.93177        19.19736        -2.01336
   C      -14.27987        18.58158        -0.91857
   C      -14.73250        17.40423        -0.33437
   S      -12.87729        19.47918        -0.42301
   C      -13.18402        20.65591        -1.67293
   C      -14.27846        20.39173        -2.42470
  Br      -12.02945        22.12102        -1.86837
   H       -4.28424         6.67915         8.03694
   H       -1.09219         3.17277         9.65507
   H       -2.96621         8.35464         9.86092
   H       -4.46289         0.73575         6.00324
   H       -6.10968        -0.19427         4.56269
   H       -7.59078         0.24468         0.37893
   H       -8.99919        -0.80462         0.20462
   H       -7.57954        -1.37386         1.08194
   H      -10.45998        -0.62011         4.46035
   H       -9.50614        -1.95438         3.80875
   H      -10.92494        -1.37719         2.93549
   H      -11.59051         2.01984         1.13270
   H      -16.64385         6.18219        -0.65278
   H      -18.38925         8.30080        -4.10785
   H      -20.12911         8.44511        -3.84528
   H      -19.29796         6.94536        -3.43601
   H      -20.10283         8.72157         0.63933
   H      -20.43401         7.21180        -0.21505
   H      -21.27188         8.69212        -0.68191
   H      -19.84925        12.00493        -2.29749
   H      -19.05292        14.42419        -2.62421
   H      -16.59899        19.04582        -3.38570
   H      -14.20236        16.96419         0.49427
   H      -14.61287        21.01095        -3.23698
*
