# ORCA input file
# SCF done       -230.309737814051          0.000497705948
! CAM-B3LYP def2-SVP def2/J RIJCOSX Grid4 TightSCF
%maxcore 5000
%tddft
    Mode sTDDFT
    Ethresh 5.0
    maxcore 5000
end

%pal
  nprocs 6
  end
* xyz 0 1
   C       -5.02829        -0.52391        -5.39299
   C       -4.71934        -0.04165        -6.63836
   C       -4.16707        -0.82535        -7.67404
   N       -3.71933        -1.40627        -8.55706
   C       -4.87999         1.29100        -7.07309
   N       -4.97027         2.35010        -7.50840
   C       -4.82231        -1.89817        -4.94819
   C       -5.18566        -1.99510        -3.58235
   C       -5.10697        -3.16770        -2.87119
   C       -4.65131        -4.30643        -3.54290
   C       -4.29219        -4.20340        -4.90862
   C       -4.36845        -3.01547        -5.62527
   S       -3.76142        -5.72993        -5.54573
   C       -4.02581        -6.47551        -3.99164
   C       -4.48715        -5.62665        -3.04238
  Br       -3.66915        -8.30275        -3.76982
   C       -5.64614        -0.67933        -3.10794
   O       -5.99667        -0.40592        -1.97720
   C       -5.58873         0.21868        -4.27540
   C       -6.04030         1.50766        -4.31784
   C       -6.64731         2.29729        -3.31802
   C       -7.12382         3.56930        -3.59607
   C       -7.74634         4.19496        -2.51099
   C       -7.71295         3.37035        -1.35727
   S       -6.93150         1.84817        -1.64871
   C       -8.26066         3.77354        -0.14957
   S       -8.14413         2.68947         1.23140
   C       -7.67031         3.79990         2.60293
   C       -8.95387         4.99855        -0.13080
   C       -8.97927         5.83501        -1.28776
   C       -8.35790         5.47399        -2.46738
   S       -8.31469         6.40338        -3.95882
   C       -8.36161         8.14311        -3.43991
   S       -9.99487         7.23618        -1.00574
   C      -10.39732         6.68052         0.59848
   C       -9.75999         5.50115         0.90327
   C      -11.35270         7.39395         1.37518
   C      -11.70310         7.05880         2.70695
   C      -12.82893         7.67012         3.38095
   N      -13.13724         7.28215         4.62615
   C      -12.41674         6.36653         5.22828
   C      -11.27997         5.79745         4.57991
   N      -10.95995         6.15350         3.35662
   C      -10.45493         4.84888         5.23072
   N       -9.78157         4.07402         5.74031
   C      -12.77203         5.96072         6.53872
   N      -13.03448         5.60183         7.59451
   C      -13.62683         8.66005         2.75524
   C      -13.17982         9.08736         1.48801
   C      -12.06879         8.46954         0.81351
   N      -11.85175         9.01115        -0.38424
   S      -12.92628        10.18218        -0.63733
   N      -13.72794        10.05340         0.75184
   C      -14.84216         9.16904         3.29656
   C      -15.50643         8.78550         4.43650
   C      -16.73724         9.43456         4.62616
   C      -17.03618        10.34837         3.57907
   S      -15.73298        10.38558         2.41399
   C      -18.22734        11.05296         3.55205
   S      -18.72182        12.23240         2.34348
   C      -18.00156        11.65377         0.78048
   C      -19.12332        10.84625         4.62414
   C      -18.80377         9.95575         5.68421
   C      -17.63098         9.22479         5.69935
   S      -17.13307         8.08598         6.94612
   C      -18.66796         7.23318         7.41813
   S      -20.07607         9.93408         6.87350
   C      -21.06231        11.01448         5.90890
   C      -20.39196        11.43557         4.79026
   C      -22.37120        11.39684         6.30456
   C      -23.23471        10.72353         7.10804
   C      -23.22495         9.36427         7.61096
   C      -22.72320         8.26535         6.96374
   C      -22.77290         6.95589         7.48113
   N      -22.75447         5.87543         7.86858
   C      -22.17281         8.30425         5.66504
   N      -21.77359         8.26818         4.58901
   C      -24.09343         9.33084         8.78050
   C      -24.81513        10.55065         8.84418
   C      -24.37175        11.43996         7.75111
   O      -24.79641        12.53367         7.46198
   C      -25.76163        10.79454         9.80964
   C      -25.99716         9.79587        10.76075
   C      -25.25876         8.58921        10.69705
   C      -24.30834         8.33682         9.71565
   S      -25.70294         7.49950        11.97439
   C      -26.86376         8.65892        12.56542
   C      -26.91500         9.80550        11.84645
  Br      -27.89577         8.24627        14.07541
   H       -5.39173        -3.20473        -1.83144
   H       -4.08518        -2.99223        -6.66406
   H       -4.70425        -5.91778        -2.03092
   H       -5.96211         2.02447        -5.26695
   H       -7.03551         4.02333        -4.56749
   H       -8.46740         3.84423         3.33885
   H       -7.44874         4.78470         2.20954
   H       -6.78355         3.36698         3.05623
   H       -7.93349         8.69869        -4.26910
   H       -7.75290         8.27072        -2.55163
   H       -9.38215         8.46641        -3.26247
   H       -9.92404         4.99122         1.83246
   H      -15.12320         8.04746         5.11543
   H      -18.59011        12.13363         0.00395
   H      -18.10501        10.57640         0.71475
   H      -16.96161        11.95256         0.69876
   H      -18.35252         6.26346         7.79128
   H      -19.29655         7.10784         6.54279
   H      -19.18771         7.77705         8.20083
   H      -20.82048        12.11170         4.07253
   H      -22.70250        12.37440         5.96843
   H      -26.30600        11.72553         9.83026
   H      -23.76597         7.40567         9.70567
   H      -27.57263        10.62529        12.07082
*
