# ORCA input file
# SCF done       -199.685979875505          0.000523269594
! CAM-B3LYP def2-SVP def2/J RIJCOSX Grid4 TightSCF
%maxcore 5000
%tddft
    Mode sTDDFT
    Ethresh 5.0
    maxcore 5000
end

%pal
  nprocs 6
  end
* xyz 0 1
   C       -6.07087         2.57114         0.92460
   C       -7.11817         3.09065         0.21624
   F       -7.35182         4.40883         0.22961
   C       -7.96406         2.24964        -0.53460
   F       -8.98298         2.78597        -1.21867
   C       -7.75105         0.89983        -0.56617
   C       -6.68155         0.33457         0.15483
   C       -5.82462         1.18364         0.91353
   C       -4.74452         0.63895         1.64625
   C       -4.53070        -0.71387         1.62495
   C       -5.39651        -1.55328         0.86926
   C       -6.44324        -1.05762         0.14687
   C       -4.96935        -2.95200         1.02941
   O       -5.48022        -3.92753         0.50479
   C       -3.82831        -2.93189         1.94964
   C       -3.52132        -1.55019         2.27207
   C       -2.46451        -1.08330         3.00853
   C       -1.45180        -1.87727         3.58769
   N       -0.58744        -2.45369         4.07662
   C       -2.22845         0.28368         3.26835
   N       -1.98354         1.37730         3.51582
   C       -3.21113        -4.03985         2.47455
   C       -3.44271        -5.40288         2.23924
   C       -2.75010        -6.40015         2.93945
   C       -3.12494        -7.67301         2.55825
   C       -4.10722        -7.65736         1.53679
   S       -4.57937        -6.08832         1.07624
   C       -4.42340        -8.99780         1.21612
   C       -3.65625        -9.85961         2.02570
   C       -2.81489        -9.05328         2.89663
   C       -1.93308        -9.50314         3.83436
   C       -1.73437       -10.88023         4.06844
   N       -1.58054       -12.00111         4.25498
   C       -1.17007        -8.62702         4.63572
   N       -0.55172        -7.92091         5.29349
   C       -3.90603       -11.20578         1.77896
   C       -4.85573       -11.38547         0.78264
   S       -5.44179        -9.85413         0.14923
   C       -5.38030       -12.58506         0.23998
   C       -5.06557       -13.83326         0.67002
   C       -5.58765       -15.02737         0.11244
   C       -6.44135       -15.19358        -0.96979
   C       -6.72272       -16.53329        -1.21357
   C       -6.08330       -17.40569        -0.31041
   S       -5.13351       -16.56555         0.83054
   C       -6.42660       -18.73700        -0.64666
   C       -7.28444       -18.70558        -1.76728
   C       -7.49030       -17.32458        -2.16347
   C       -8.22002       -16.87634        -3.22502
   C       -8.89106       -17.77100        -4.08544
   N       -9.43355       -18.51156        -4.77240
   C       -8.34460       -15.50296        -3.52114
   N       -8.44605       -14.38381        -3.74840
   C       -7.65348       -19.97032        -2.20212
   C       -7.08911       -20.97730        -1.43051
   S       -6.10831       -20.32267        -0.12132
   C       -7.24238       -22.37444        -1.54276
   C       -7.67727       -23.10836        -2.60661
   C       -8.16371       -24.49563        -2.35818
   O       -8.03013       -25.13318        -1.33981
   C       -8.87858       -24.88384        -3.58924
   C       -9.60763       -26.01044        -3.83985
   C      -10.23539       -26.15591        -5.09727
   C      -10.10336       -25.12150        -6.06902
   C      -10.73839       -25.26966        -7.31844
   C      -11.46584       -26.39380        -7.59214
   C      -11.59441       -27.41687        -6.63102
   C      -10.99311       -27.30157        -5.40909
   F      -12.31457       -28.50704        -6.92629
   F      -12.06587       -26.53495        -8.78076
   C       -9.33822       -23.96776        -5.78226
   C       -8.72524       -23.85648        -4.56320
   C       -7.85593       -22.81803        -4.01274
   C       -7.14997       -21.91660        -4.76711
   C       -6.13730       -21.08150        -4.25814
   N       -5.28859       -20.40033        -3.89192
   C       -7.28554       -21.78588        -6.16559
   N       -7.35185       -21.64006        -7.30157
   H       -5.43277         3.22940         1.49328
   H       -8.40751         0.26944        -1.14530
   H       -4.11749         1.30954         2.21080
   H       -7.08191        -1.71858        -0.41909
   H       -2.43057        -3.86538         3.20544
   H       -2.01411        -6.16648         3.68849
   H       -3.42369       -12.01932         2.28788
   H       -6.08430       -12.46310        -0.57090
   H       -4.37709       -13.95786         1.49365
   H       -6.82807       -14.37585        -1.54879
   H       -8.33422       -20.16481        -3.01078
   H       -7.05156       -22.95172        -0.64278
   H       -9.70396       -26.78044        -3.08968
   H      -10.64701       -24.49761        -8.06634
   H      -11.10144       -28.09330        -4.68444
   H       -9.26458       -23.19514        -6.53073
*
