# ORCA input file
# SCF done       -230.018120013387          0.000189863071
! CAM-B3LYP def2-SVP def2/J RIJCOSX Grid4 TightSCF
%maxcore 5000
%tddft
    Mode sTDDFT
    Ethresh 5.0
    maxcore 5000
end

%pal
  nprocs 6
  end
* xyz 0 1
   C       -5.60608         6.01419        -2.17964
   O       -5.90550         5.19547        -1.35496
   C       -5.59321         7.49461        -2.03547
   C       -4.85638         8.06911        -3.08879
   C       -4.69182         9.44218        -3.17414
   C       -5.27405        10.22874        -2.19143
   C       -5.99872         9.67707        -1.13511
   C       -6.15604         8.29070        -1.05306
   F       -6.84429         7.77196        -0.04511
   F       -6.53689        10.46954        -0.20769
   F       -5.13695        11.55351        -2.25422
   C       -4.36125         7.00264        -3.95494
   C       -3.40153         7.12426        -4.92145
   C       -2.79641         8.34439        -5.29340
   N       -2.27740         9.30746        -5.63745
   C       -2.83528         6.02238        -5.59674
   N       -2.30937         5.15343        -6.13133
   C       -5.01529         5.77563        -3.53361
   C       -5.14634         4.62744        -4.23555
   C       -5.99774         3.54421        -3.83137
   N       -7.22831         3.76588        -3.41127
   C       -7.77371         2.54691        -3.18864
   C       -6.82170         1.48567        -3.50754
   C       -7.39857         0.15977        -3.24609
   O       -6.88302        -0.92838        -3.38834
   C       -8.75261         0.49742        -2.76125
   C       -8.94053         1.96679        -2.74748
   N      -10.17590         2.28554        -2.29424
   C      -10.75001         1.13860        -2.02485
   C       -9.91446        -0.01872        -2.28737
   C       -5.66841         2.10579        -3.92612
   C       -4.46187         1.45957        -4.30824
   C       -3.25942         2.03417        -4.52490
   C       -2.05825         1.32233        -4.87762
   C       -1.94346        -0.04896        -4.72981
   C       -0.74667        -0.69417        -5.06513
   C       -0.39488        -2.04808        -5.00036
   C       -1.34453        -3.12182        -4.62154
   C       -2.12556        -3.56054        -5.90990
   N       -3.23051        -4.44542        -5.69067
   C       -0.73413        -4.35032        -3.93013
   N        0.34468        -3.97045        -3.03172
   C        0.97024        -2.14010        -5.45486
   C        1.81599        -3.18318        -5.55706
   C        3.23711        -2.99692        -5.97434
   C        3.58622        -1.61619        -6.41274
   C        2.72795        -0.58131        -6.30587
   C        1.42419        -0.78634        -5.80416
   C        0.36994         0.08337        -5.56375
   C        0.23137         1.47945        -5.71080
   C       -0.94589         2.07306        -5.37183
   C        3.61773        -4.04444        -6.98383
   C        3.80310        -5.33435        -6.67125
   C        4.13875        -6.31960        -7.65119
   N        4.47105        -5.99183        -8.89089
   C        4.73202        -7.15060        -9.52367
   C        4.55853        -8.30234        -8.62854
   C        4.82459        -9.56038        -9.34896
   O        4.78131       -10.69778        -8.92321
   C        5.15654        -9.09514       -10.70119
   C        5.09648        -7.61825       -10.76704
   N        5.39550        -7.18337       -12.01063
   C        5.62621        -8.27226       -12.70966
   C        5.48934        -9.49918       -11.95563
   C        4.16531        -7.77926        -7.41636
   C        3.79231        -8.44378        -6.21714
   C        3.79877        -9.79622        -6.10995
   C        3.36316       -10.50058        -4.96398
   C        3.10993       -11.83855        -4.92088
   C        3.03175       -12.55870        -3.62521
   O        2.90719       -12.07046        -2.52974
   C        3.19544       -13.99043        -3.98576
   C        3.24241       -14.12677        -5.38710
   C        3.03760       -12.80977        -5.99250
   C        2.62677       -12.57837        -7.27664
   C        2.53906       -13.57986        -8.26759
   N        2.45792       -14.36077        -9.10358
   C        2.10846       -11.34290        -7.72770
   N        1.59066       -10.39453        -8.11288
   C        3.42718       -15.36718        -5.97257
   C        3.55905       -16.46795        -5.13844
   C        3.50166       -16.35483        -3.75008
   C        3.31832       -15.09946        -3.16633
   F        3.26843       -14.99620        -1.84254
   F        3.62499       -17.44021        -2.98257
   F        3.74747       -17.67366        -5.67718
   H       -4.14136         9.91980        -3.96805
   H       -4.65415         4.51064        -5.19343
   H      -11.75746         1.11035        -1.64760
   H      -10.19866        -1.04041        -2.12976
   H       -4.57296         0.38734        -4.40617
   H       -3.15494         3.10732        -4.43668
   H       -2.76583        -0.62226        -4.33142
   H       -2.08242        -2.68356        -3.93862
   H       -1.42275        -4.04709        -6.59093
   H       -2.50827        -2.65972        -6.39605
   H       -2.94887        -5.33449        -5.29904
   H       -3.94733        -4.02991        -5.10858
   H       -0.32225        -5.03793        -4.67651
   H       -1.55015        -4.88451        -3.41283
   H        0.01721        -3.27845        -2.36569
   H        0.66016        -4.77728        -2.50386
   H        1.52296        -4.18902        -5.31087
   H        3.82598        -3.20715        -5.06339
   H        4.58068        -1.48014        -6.80872
   H        3.02255         0.41258        -6.60836
   H        1.05695         2.06444        -6.08701
   H       -1.07000         3.13928        -5.48904
   H        3.71629        -3.73487        -8.01346
   H        3.69444        -5.67204        -5.64892
   H        5.89319        -8.20170       -13.74976
   H        5.63011       -10.48927       -12.34157
   H        3.43119        -7.84345        -5.39228
   H        4.15967       -10.37701        -6.94734
   H        3.27838        -9.96578        -4.02394
   H        3.48243       -15.50796        -7.03955
*
