# ORCA input file
# SCF done       -216.990497058643          0.000916875496
! CAM-B3LYP def2-SVP def2/J RIJCOSX Grid4 TightSCF
%maxcore 5000
%tddft
    Mode sTDDFT
    Ethresh 5.0
    maxcore 5000
end

%pal
  nprocs 6
  end
* xyz 0 1
   C        2.36186         3.68817        -6.20810
   C        1.39117         4.20234        -7.02161
   F        0.20234         4.55362        -6.49478
   C        1.58109         4.38107        -8.39822
   C        2.78148         4.02974        -8.95072
   C        3.81767         3.49436        -8.15893
   C        3.60447         3.32124        -6.76031
   C        4.63088         2.79053        -5.94426
   C        5.82412         2.44004        -6.51373
   C        6.02879         2.60376        -7.91444
   C        5.05957         3.12225        -8.72261
   C        7.37939         2.11758        -8.27202
   O        7.92166         2.16342        -9.35278
   C        7.90862         1.50842        -7.02572
   C        7.04889         1.90066        -5.93268
   C        7.42531         2.00913        -4.61735
   C        8.73935         1.74430        -4.18252
   N        9.81831         1.58706        -3.82135
   C        6.57986         2.47758        -3.59482
   N        5.92069         2.83482        -2.72492
   C        8.97414         0.65883        -7.06392
   C        9.31835        -0.32995        -6.11399
   S        8.10409        -1.06935        -5.10424
   C        9.27271        -2.11802        -4.36768
   C       10.54037        -1.88247        -4.86677
   C       10.56369        -0.89660        -5.86943
   C       11.82111        -0.42060        -6.51688
   S       11.71079        -0.69772        -8.35368
   C       13.07113        -1.12132        -5.98615
   C       12.93057        -1.45492        -4.50596
   C       11.80561        -2.47239        -4.33122
   C        8.83369        -3.07054        -3.37685
   C        9.44262        -4.29522        -3.24364
   C        8.95880        -5.22177        -2.29694
   C        9.36513        -6.51435        -2.00556
   C       10.51825        -7.24465        -2.60755
   C       11.51338        -7.72024        -1.52956
   N       12.83367        -7.85074        -2.10823
   C       10.02765        -8.40046        -3.49782
   N       11.13007        -8.98227        -4.24835
   C        8.47508        -7.00361        -0.97768
   C        8.36644        -8.20731        -0.38824
   C        7.37879        -8.46101         0.70431
   C        6.46659        -7.31746         0.99897
   C        6.54425        -6.13937         0.35414
   C        7.52972        -5.92800        -0.64037
   C        7.82235        -4.85792        -1.45939
   C        7.22443        -3.58525        -1.61643
   C        7.70966        -2.73188        -2.55064
   C        8.24296        -8.86356         1.87173
   C        8.47367        -8.10755         2.94802
   C        9.40661        -8.46892         3.97149
   S       10.39643        -9.88424         3.79447
   C       11.20116        -9.56927         5.31013
   C       10.67426        -8.44961         5.92764
   C        9.70814        -7.79251         5.14096
   C        9.14112        -6.46414         5.52096
   S        9.43847        -5.24038         4.16160
   C        9.74135        -5.91567         6.81598
   C       10.01182        -7.02753         7.82239
   C       11.09565        -7.94721         7.26638
   C       12.26951       -10.38730         5.75354
   C       13.17261       -11.02540         4.96019
   C       13.95032       -12.18502         5.47101
   O       14.05977       -12.53400         6.62430
   C       14.49800       -12.83855         4.26524
   C       15.18022       -14.01594         4.16087
   C       15.58316       -14.46929         2.88427
   C       15.26814       -13.68862         1.73390
   C       15.66564       -14.15072         0.46429
   C       16.34453       -15.33303         0.36257
   C       16.66497       -16.11412         1.48107
   C       16.28634       -15.68026         2.72124
   F       16.72423       -15.77587        -0.84974
   C       14.56828       -12.46753         1.87245
   C       14.19215       -12.04759         3.11944
   C       13.49730       -10.84338         3.56124
   C       13.41473        -9.67139         2.85073
   C       12.99146        -8.44338         3.39852
   N       12.70176        -7.40936         3.80782
   C       13.80861        -9.53687         1.50634
   N       14.08882        -9.37083         0.40459
   H        2.18171         3.56714        -5.15129
   H        0.77842         4.79074        -8.99071
   H        2.95156         4.15816       -10.00922
   H        4.44433         2.66154        -4.88953
   H        5.23488         3.24586        -9.78086
   H        9.56941         0.68842        -7.97138
   H       11.88976         0.66297        -6.38708
   H       12.74942         0.07626        -8.65859
   H       13.94053        -0.48360        -6.15704
   H       13.22250        -2.04968        -6.54294
   H       12.69814        -0.55080        -3.94017
   H       13.86744        -1.86728        -4.12970
   H       11.67587        -2.73355        -3.27942
   H       12.06243        -3.38545        -4.87768
   H       10.25310        -4.57743        -3.89600
   H       11.07340        -6.54896        -3.24482
   H       11.14272        -8.65394        -1.07476
   H       11.56435        -6.96577        -0.73667
   H       12.79835        -8.54950        -2.84531
   H       13.49373        -8.16451        -1.40357
   H        9.22097        -8.01383        -4.14574
   H        9.59888        -9.19172        -2.87704
   H       11.52598        -8.28768        -4.87436
   H       10.79977        -9.75634        -4.81515
   H        9.01761        -9.03165        -0.63980
   H        6.77157        -9.33750         0.42855
   H        5.72505        -7.49106         1.76428
   H        5.85785        -5.33827         0.58635
   H        6.38409        -3.30904        -0.99738
   H        7.26368        -1.75714        -2.68616
   H        8.75641        -9.81105         1.76080
   H        7.96910        -7.16004         3.06586
   H        8.05065        -6.51897         5.58946
   H       10.72611        -5.53547         4.00601
   H        9.06541        -5.16813         7.23249
   H       10.68645        -5.41801         6.58679
   H        9.09862        -7.59912         8.00304
   H       10.33792        -6.59807         8.77009
   H       11.28075        -8.78748         7.93943
   H       12.03432        -7.39343         7.16672
   H       12.35297       -10.56773         6.82057
   H       15.40904       -14.59731         5.04141
   H       15.43934       -13.57325        -0.41844
   H       17.20185       -17.03864         1.33954
   H       16.52177       -16.26507         3.59764
   H       14.33497       -11.89941         0.98573
*
