# ORCA input file
# SCF done       -183.635764812253          0.000833313357
! CAM-B3LYP def2-SVP def2/J RIJCOSX Grid4 TightSCF
%maxcore 5000
%tddft
    Mode sTDDFT
    Ethresh 5.0
    maxcore 5000
end

%pal
  nprocs 6
  end
* xyz 0 1
   C       -0.87182         3.64492        -8.95906
   C       -0.00473         3.44136        -7.88105
   C       -0.40964         2.79641        -6.73253
   C       -1.72776         2.35271        -6.68755
   C       -2.59497         2.56454        -7.78522
   C       -2.18473         3.21386        -8.93452
   O       -3.79146         2.03507        -7.46295
   C       -3.62326         1.52097        -6.21824
   N       -2.43154         1.69404        -5.72082
   C       -4.72554         0.86109        -5.58249
   C       -5.82683         0.30538        -6.21721
   N       -6.03830         0.08392        -7.59497
   O       -5.08209        -0.05248        -8.32948
   O       -7.20163         0.00128        -7.95789
   C       -6.79402        -0.10600        -5.23771
   C       -6.33269         0.24717        -4.01654
   C       -5.03934         0.88637        -4.16378
   C       -4.33093         1.44333        -3.10852
   C       -2.93571         1.47464        -2.86800
   C       -2.72567         1.82302        -1.55704
   C       -3.97576         2.11212        -0.93593
   N       -4.11415         2.57767         0.37688
   O       -5.23993         2.83953         0.78323
   O       -3.10462         2.68626         1.05195
   C       -4.99344         1.94844        -1.88408
   C       -6.33044         2.35012        -1.82107
   C       -7.04617         2.63296        -2.96617
   C       -8.42247         2.75547        -3.18819
   N       -9.49925         2.62034        -2.34682
   C       -9.48296         2.53532        -0.90564
   C       -9.16975         3.88114        -0.25832
   C      -10.72093         2.64631        -3.05056
   O      -11.80364         2.58503        -2.51222
   C      -10.33459         2.76922        -4.44669
   C       -8.93899         2.87232        -4.48977
   C       -8.52538         3.02234        -5.87180
   O       -7.43523         3.16228        -6.37840
   N       -9.73923         3.01281        -6.58913
   C       -9.75586         3.07356        -8.03216
   C       -9.97029         1.69927        -8.65892
   C      -10.82030         2.84242        -5.76522
   C      -12.15825         2.78617        -6.21088
   C      -13.18390         2.42560        -5.39171
   C      -14.54175         2.41873        -5.77859
   S      -15.09981         3.20344        -7.23736
   C      -16.75427         2.86223        -6.86597
   C      -16.86994         2.15161        -5.68352
   C      -15.61736         1.89186        -5.07291
   C      -15.48509         1.07873        -3.85609
   O      -14.42566         0.63568        -3.45867
   C      -16.76418         0.81293        -3.16100
   C      -16.72073         0.27281        -1.87860
   C      -17.88875        -0.00944        -1.19465
   C      -19.11718         0.22980        -1.79353
   C      -19.17250         0.75069        -3.07314
   C      -18.00361         1.05541        -3.76643
   C      -18.12512         1.61114        -5.13416
   O      -19.17866         1.60695        -5.73997
   C      -17.78893         3.35571        -7.75791
   C      -18.92514         3.99482        -7.22964
   C      -19.92244         4.49308        -8.03572
   C      -19.77270         4.34268        -9.40914
   C      -18.62243         3.71508        -9.93585
   C      -17.61321         3.22567        -9.13417
   O      -18.74338         3.71742       -11.28753
   C      -19.92464         4.32749       -11.50991
   N      -20.56771         4.71351       -10.46868
   H       -0.50220         4.15239        -9.83721
   H        1.01082         3.80001        -7.95688
   H        0.25518         2.63574        -5.89978
   H       -2.85700         3.36361        -9.76319
   H       -7.70011        -0.62742        -5.47982
   H       -6.77575         0.00348        -3.07084
   H       -2.19922         1.17680        -3.58717
   H       -1.78267         1.88119        -1.04582
   H       -6.75227         2.48553        -0.83484
   H       -6.48224         2.76348        -3.88175
   H       -8.76308         1.77334        -0.59553
   H      -10.48605         2.21097        -0.61398
   H       -8.21601         4.27237        -0.60412
   H       -9.12328         3.76612         0.82058
   H       -9.94807         4.60108        -0.49996
   H       -8.77797         3.46168        -8.32829
   H      -10.52783         3.77882        -8.35438
   H       -9.14999         1.03506        -8.39873
   H      -10.00312         1.79482        -9.74032
   H      -10.90327         1.25681        -8.31704
   H      -12.36285         3.02797        -7.24586
   H      -12.98420         2.11138        -4.37385
   H      -15.75299         0.08583        -1.43760
   H      -17.84331        -0.42022        -0.19736
   H      -20.03076         0.00619        -1.26362
   H      -20.11796         0.93447        -3.56164
   H      -19.00430         4.10616        -6.16013
   H      -20.78981         4.98357        -7.62705
   H      -16.74238         2.74324        -9.54951
   H      -20.24633         4.45057       -12.52577
*
