# ORCA input file
# SCF done       -219.746554888837          0.000836440243
! CAM-B3LYP def2-SVP def2/J RIJCOSX Grid4 TightSCF
%maxcore 5000
%tddft
    Mode sTDDFT
    Ethresh 5.0
    maxcore 5000
end

%pal
  nprocs 6
  end
* xyz 0 1
   C       -0.48043         2.25601        -0.17595
   C        0.65149         2.51309        -0.89717
   F        0.92737         3.76171        -1.29486
   C        1.54188         1.47234        -1.23085
   F        2.64410         1.75444        -1.93789
   C        1.28801         0.18841        -0.83751
   C        0.13119        -0.10833        -0.09082
   C       -0.77143         0.94259         0.24506
   C       -1.94009         0.66807         0.99118
   C       -2.19578        -0.61772         1.39043
   C       -1.28426        -1.65808         1.05984
   C       -0.14947        -1.42445         0.33784
   C       -1.76407        -2.93960         1.61522
   O       -1.20747        -4.00945         1.52625
   C       -3.00369        -2.59976         2.36978
   C       -3.29504        -1.19350         2.15663
   C       -4.43879        -0.53911         2.53104
   C       -5.53030        -1.14097         3.19347
   N       -6.45665        -1.56730         3.72079
   C       -4.68822         0.82458         2.26864
   N       -4.94285         1.92952         2.09141
   C       -3.60560        -3.40195         3.29446
   C       -3.39988        -4.79331         3.48232
   C       -3.04991        -5.75905         2.56586
   C       -2.98019        -7.02465         3.22648
   C       -3.30208        -6.77079         4.64058
   C       -3.58344        -5.44844         4.77253
   C       -3.26621        -7.68574         5.70169
   N       -3.21084        -8.38031         6.61409
   C       -2.66848        -8.23682         2.65749
   C       -2.57360        -9.49761         3.30855
   C       -2.14996       -10.44824         2.40199
   C       -2.00013        -9.79222         1.10762
   C       -2.32341        -8.48046         1.24324
   C       -2.34612        -7.55932         0.18833
   N       -2.37591        -6.85413        -0.71749
   C       -1.95663       -11.81589         2.73134
   N       -1.20644       -12.74844         2.05871
   C       -0.28005       -12.51964         0.97355
   C        0.78954       -11.49422         1.33493
   C       -1.28021       -14.01789         2.66863
   O       -0.72301       -15.00405         2.23058
   C       -2.14199       -13.81931         3.81362
   C       -2.54328       -12.46312         3.81968
   C       -3.51417       -12.28356         4.88082
   O       -4.14933       -11.32768         5.26117
   N       -3.61773       -13.56552         5.46451
   C       -4.48798       -13.79282         6.59425
   C       -5.88732       -14.21406         6.15186
   C       -2.80997       -14.48216         4.84619
   C       -2.81817       -15.86419         5.19548
   C       -1.86289       -16.79236         4.95680
   C       -0.48611       -16.61195         4.57194
   C        0.16577       -17.58976         3.87865
   C        1.65103       -17.48401         3.60941
   C        1.97935       -16.05496         3.37613
   C        1.31837       -15.04828         4.12367
   C        0.29236       -15.44090         5.12089
   N        1.69728       -13.83786         3.79439
   S        2.82733       -13.95271         2.61811
   N        2.83840       -15.57532         2.51235
   C       -0.54412       -18.67970         3.26943
   C       -0.10536       -19.94616         3.05860
   C       -0.76079       -20.81787         2.04006
   O       -1.82313       -20.62605         1.49962
   C        0.18904       -21.92855         1.81802
   C        0.12748       -22.94101         0.90433
   C        1.16477       -23.90010         0.87008
   C        2.25385       -23.78799         1.78324
   C        3.28479       -24.74812         1.74263
   C        3.23535       -25.77379         0.84084
   C        2.15764       -25.88440        -0.06136
   C        1.14379       -24.96777        -0.04837
   F        2.13599       -26.89918        -0.93441
   F        4.21339       -26.68680         0.80584
   C        2.28955       -22.73159         2.72146
   C        1.26843       -21.81963         2.74211
   C        1.01387       -20.67877         3.61425
   C        1.54600       -20.49128         4.86287
   C        2.58559       -21.27726         5.40033
   N        3.44583       -21.87734         5.86573
   C        1.02099       -19.55697         5.77828
   N        0.57391       -18.84146         6.55706
   H       -1.15200         3.06399         0.06907
   H        1.97889        -0.59723        -1.10037
   H       -2.60013         1.48476         1.23533
   H        0.52304        -2.23393         0.09826
   H       -4.27943        -2.94097         4.00835
   H       -2.89433        -5.61485         1.51632
   H       -3.86026        -4.94046         5.67819
   H       -2.78672        -9.66778         4.34493
   H       -1.73913       -10.27362         0.18458
   H       -0.82168       -12.22451         0.06977
   H        0.18319       -13.49281         0.78343
   H        0.37170       -10.49348         1.41524
   H        1.55881       -11.48554         0.56790
   H        1.24564       -11.75338         2.28716
   H       -4.55321       -12.84156         7.12996
   H       -4.03805       -14.54155         7.25040
   H       -5.85988       -15.13430         5.57220
   H       -6.32977       -13.43227         5.53992
   H       -6.51570       -14.36893         7.02419
   H       -3.73763       -16.21374         5.64662
   H       -2.14501       -17.82182         5.13888
   H        1.94764       -18.09189         2.75416
   H        2.21918       -17.81759         4.48695
   H       -0.34696       -14.60414         5.38952
   H        0.79971       -15.78258         6.03280
   H       -1.51088       -18.44757         2.83485
   H       -0.70278       -23.01178         0.21829
   H        4.11480       -24.68017         2.42842
   H        0.32638       -25.06698        -0.74529
   H        3.12726       -22.66408         3.39749
*
