# ORCA input file
# SCF done       -244.905053298293          0.000684022617
! CAM-B3LYP def2-SVP def2/J RIJCOSX Grid4 TightSCF
%maxcore 5000
%tddft
    Mode sTDDFT
    Ethresh 5.0
    maxcore 5000
end

%pal
  nprocs 6
  end
* xyz 0 1
   C       -2.48331         2.84522         3.12085
   C       -1.21400         3.24905         3.42762
   F       -0.96023         4.53722         3.67922
   C       -0.15663         2.31651         3.48226
   F        1.07510         2.74156         3.78381
   C       -0.38432         0.99295         3.22877
   C       -1.68139         0.54588         2.90795
   C       -2.75173         1.48732         2.85385
   C       -4.06111         1.06145         2.53661
   C       -4.29511        -0.26475         2.27834
   C       -3.21836        -1.19677         2.32638
   C       -1.94243        -0.81361         2.63421
   C       -3.71056        -2.54150         2.00475
   O       -3.06618        -3.56634         1.95141
   C       -5.16376        -2.36883         1.68763
   C       -5.52007        -0.97692         1.93992
   C       -6.78397        -0.46229         1.93775
   C       -7.95367        -1.21572         1.68795
   N       -8.94007        -1.77434         1.51502
   C       -7.08511         0.88912         2.22037
   N       -7.38158         1.97553         2.43675
   C       -5.92276        -3.32008         1.11014
   C       -5.47148        -4.68461         0.92085
   C       -4.92935        -5.48235         1.93564
   C       -4.73711        -5.14914         3.37438
   O       -5.10049        -4.19986         3.99455
   O       -4.05578        -6.19115         3.93464
   C       -3.81543        -7.18734         3.01734
   O       -3.16985        -8.15093         3.28505
   C       -4.44398        -6.77080         1.73517
   C       -4.46508        -7.40725         0.47428
   C       -4.99700        -6.59276        -0.54310
   C       -5.49094        -5.31043        -0.32510
   C       -5.92557        -4.76981        -1.63552
   O       -6.38130        -3.70212        -1.90095
   O       -5.69540        -5.74876        -2.56852
   C       -5.13145        -6.86424        -1.99175
   O       -4.82125        -7.82747        -2.62343
   C       -3.97578        -8.71716         0.16491
   C       -3.97808        -9.77275         1.01217
   C       -3.50491       -11.08859         0.75755
   N       -2.65869       -11.54142        -0.22567
   C       -1.93585       -10.78670        -1.22402
   C       -0.89508        -9.85988        -0.60342
   C       -2.40541       -12.92783        -0.09478
   O       -1.67081       -13.55096        -0.82928
   C       -3.19862       -13.32883         1.04486
   C       -3.84951       -12.18921         1.54600
   C       -4.66526       -12.60604         2.67052
   O       -5.41751       -12.00033         3.39720
   N       -4.42966       -13.99911         2.77697
   C       -5.06342       -14.74977         3.83422
   C       -4.11520       -14.99825         5.00519
   C       -3.55016       -14.44164         1.81792
   C       -3.02514       -15.72279         1.55234
   C       -3.22396       -16.91812         2.18032
   C       -2.58150       -18.10286         1.77590
   S       -1.48810       -18.15114         0.43790
   C       -1.23842       -19.85914         0.57150
   C       -1.92939       -20.37481         1.68667
   C       -2.70790       -19.38433         2.35881
   C       -3.48126       -19.74354         3.46993
   C       -3.46353       -21.04575         3.92234
   C       -4.24982       -21.41747         5.03802
   N       -4.88753       -21.69611         5.94781
   C       -2.62977       -22.01522         3.29571
   C       -2.57619       -23.33655         3.79889
   N       -2.51279       -24.41633         4.17537
   C       -1.86437       -21.67777         2.20158
   C       -0.40900       -20.49859        -0.36975
   C       -0.39021       -21.79639        -0.79505
   C        0.83298       -22.29828        -1.48675
   O        1.76231       -21.63011        -1.87414
   C        0.67753       -23.76410        -1.53493
   C        1.56766       -24.70778        -1.95945
   C        1.20892       -26.07239        -1.88370
   C       -0.06665       -26.43291        -1.35906
   C       -0.41410       -27.79610        -1.27750
   C        0.46148       -28.75614        -1.70204
   C        1.72181       -28.39832        -2.22293
   C        2.08933       -27.08470        -2.31188
   F        2.55937       -29.35969        -2.63050
   F        0.12965       -30.05010        -1.62788
   C       -0.97078       -25.43274        -0.93284
   C       -0.60670       -24.11646        -1.02888
   C       -1.32947       -22.88999        -0.69912
   C       -2.69127       -22.79215        -0.55572
   C       -3.38672       -21.57230        -0.46571
   N       -3.99406       -20.59895        -0.41307
   C       -3.56378       -23.90024        -0.56513
   N       -4.31721       -24.76531        -0.55246
   H       -3.28005         3.57171         3.08530
   H        0.43458         0.29226         3.27472
   H       -4.84835         1.79711         2.49990
   H       -1.14557        -1.54094         2.66775
   H       -6.89196        -3.08202         0.69116
   H       -3.68134        -8.84338        -0.86568
   H       -4.42892        -9.67575         1.99034
   H       -2.63277       -10.23679        -1.86098
   H       -1.43361       -11.53790        -1.84185
   H       -1.35457        -9.13867         0.06800
   H       -0.37275        -9.32280        -1.38995
   H       -0.16929       -10.44110        -0.03984
   H       -5.46372       -15.68310         3.43023
   H       -5.90125       -14.13419         4.17549
   H       -3.21654       -15.52136         4.68490
   H       -4.61643       -15.58974         5.76654
   H       -3.81978       -14.04914         5.44502
   H       -2.34907       -15.71353         0.70407
   H       -3.88714       -17.00527         3.02594
   H       -4.08960       -19.01400         3.98193
   H       -1.20419       -22.41096         1.76493
   H        0.36134       -19.87549        -0.81736
   H        2.53233       -24.41760        -2.34694
   H       -1.37531       -28.08687        -0.88340
   H        3.05757       -26.82743        -2.71194
   H       -1.92461       -25.73402        -0.52998
*
