# ORCA input file
# SCF done       -244.694453451156          0.000790848967
! CAM-B3LYP def2-SVP def2/J RIJCOSX Grid4 TightSCF
%maxcore 5000
%tddft
    Mode sTDDFT
    Ethresh 5.0
    maxcore 5000
end

%pal
  nprocs 6
  end
* xyz 0 1
   C      -15.46763        -2.05106        -4.95938
   C      -16.45483        -2.85113        -5.46297
   F      -17.48555        -2.31304        -6.12583
   C      -16.40141        -4.24938        -5.29269
   F      -17.38195        -5.01014        -5.79673
   C      -15.36163        -4.82799        -4.62051
   C      -14.32944        -4.03041        -4.08930
   C      -14.38087        -2.61670        -4.26280
   C      -13.35089        -1.79726        -3.74672
   C      -12.30240        -2.37480        -3.08091
   C      -12.26539        -3.78597        -2.90004
   C      -13.24605        -4.60213        -3.38621
   C      -11.05897        -4.15626        -2.13720
   O      -10.78139        -5.26143        -1.71874
   C      -10.33798        -2.88010        -1.89620
   C      -11.09732        -1.80203        -2.49109
   C      -10.68892        -0.49821        -2.59517
   C      -11.45642         0.52344        -3.19155
   N      -12.04585         1.39010        -3.65902
   C       -9.42334        -0.03332        -2.17769
   N       -8.38851         0.38872        -1.91724
   C       -9.24407        -2.76685        -1.08427
   C       -8.40730        -3.84760        -0.72602
   C       -7.84990        -4.11956         0.52461
   N       -8.02124        -3.35474         1.69008
   O       -8.76321        -2.38620         1.63695
   O       -7.41337        -3.70295         2.68656
   C       -7.15633        -5.36250         0.46965
   C       -7.29659        -5.87914        -0.79149
   C       -8.04191        -4.96475        -1.58749
   C       -8.26798        -5.01721        -2.96512
   C       -8.29732        -3.92283        -3.85312
   C       -8.47037        -4.39691        -5.13151
   C       -8.61337        -5.80755        -5.10207
   N       -8.75570        -6.51768        -6.28735
   O       -8.62566        -7.74439        -6.29443
   O       -8.98497        -5.88656        -7.30976
   C       -8.52983        -6.23853        -3.74728
   C       -8.88213        -7.40628        -3.08307
   C       -9.33653        -8.59280        -3.63875
   C       -9.67451        -9.71883        -2.89872
   C       -9.85698        -9.79207        -1.49570
   C      -10.29114       -11.05984        -1.15687
   O      -10.57673       -11.57598         0.03305
   C      -10.42900       -10.74590         1.16892
   C      -10.36631       -11.87127        -2.34805
   C      -10.04863       -11.01722        -3.45844
   C      -10.19468       -11.31592        -4.80357
   C       -9.55784       -10.73771        -5.92129
   C      -10.13219       -11.26353        -7.06198
   O       -9.88653       -11.02363        -8.32714
   C       -8.89767       -10.05770        -8.64887
   C      -11.19431       -12.20190        -6.66739
   C      -11.21252       -12.26145        -5.33045
   C      -10.50751       -13.25761        -2.28148
   C      -10.19852       -14.15794        -3.27810
   C      -10.36265       -15.54445        -3.16492
   C      -10.85256       -16.28993        -2.09410
   C      -10.82083       -17.66007        -2.42499
   C      -10.29014       -17.74252        -3.80259
   C      -10.01323       -16.48308        -4.22313
   C      -10.07602       -18.90441        -4.55415
   N       -9.88042       -19.83284        -5.20091
   C      -11.18844       -18.72750        -1.62458
   C      -11.22308       -20.10303        -1.97219
   C      -11.70361       -20.83096        -0.89999
   C      -11.93009       -19.90421         0.19881
   C      -11.62163       -18.64814        -0.22147
   C      -11.67712       -17.50046         0.57601
   N      -11.72228       -16.57373         1.25398
   C      -11.87583       -22.23640        -0.86532
   C      -12.64129       -22.96845        -0.00917
   C      -12.35995       -24.41859         0.19268
   O      -11.65868       -25.12225        -0.49392
   C      -13.07022       -24.77578         1.43819
   C      -13.03566       -25.94708         2.13840
   C      -13.77792       -26.05335         3.33600
   C      -14.54228       -24.93800         3.78759
   C      -15.27183       -25.04814         4.98833
   C      -15.24598       -26.21121         5.70563
   C      -14.49151       -27.31437         5.25706
   C      -13.77285       -27.23862         4.09692
   F      -14.48377       -28.44069         5.98101
   F      -15.93899       -26.31382         6.84624
   C      -14.56708       -23.74053         3.03645
   C      -13.84502       -23.66298         1.87584
   C      -13.70091       -22.58732         0.89862
   C      -14.56913       -21.54053         0.72777
   C      -14.55149       -20.68529        -0.39513
   N      -14.62185       -20.00684        -1.31820
   C      -15.63788       -21.26298         1.60467
   N      -16.50439       -20.99130         2.30628
   H      -15.52283        -0.98295        -5.10024
   H      -15.33618        -5.89951        -4.49829
   H      -13.41838        -0.73088        -3.88986
   H      -13.19376        -5.67049        -3.23982
   H       -9.01342        -1.80952        -0.62966
   H       -6.62820        -5.79159         1.29989
   H       -6.81732        -6.76502        -1.16428
   H       -8.10849        -2.90176        -3.58069
   H       -8.48199        -3.81957        -6.03741
   H       -8.81233        -7.35102        -2.00693
   H       -9.41259        -8.65563        -4.71015
   H       -9.72626        -8.96765        -0.82122
   H      -10.70666       -11.35885         2.02376
   H      -11.08930        -9.87692         1.10874
   H       -9.39435       -10.40998         1.27653
   H       -8.71699       -10.07613        -5.89821
   H       -9.00794        -9.85117        -9.71107
   H       -7.90005       -10.45790        -8.45240
   H       -9.03106        -9.14313        -8.06630
   H      -11.82656       -12.70758        -7.37057
   H      -11.91031       -12.79107        -4.71174
   H      -10.81378       -13.64235        -1.31734
   H       -9.76810       -13.79193        -4.20109
   H      -11.19756       -15.89999        -1.15771
   H       -9.60787       -16.20056        -5.17740
   H      -10.97497       -20.50358        -2.93557
   H      -12.22749       -20.17944         1.19405
   H      -11.27102       -22.81189        -1.55940
   H      -12.44796       -26.78062         1.78516
   H      -15.85722       -24.21478         5.34426
   H      -13.20033       -28.09143         3.76735
   H      -15.14774       -22.90914         3.40368
*
