# ORCA input file
# SCF done       -242.827741539892          0.000718431624
! CAM-B3LYP def2-SVP def2/J RIJCOSX Grid4 TightSCF
%maxcore 5000
%tddft
    Mode sTDDFT
    Ethresh 5.0
    maxcore 5000
end

%pal
  nprocs 6
  end
* xyz 0 1
   C      -13.14745        -3.56476         3.73650
   C      -13.85715        -4.19449         4.72071
   F      -15.06954        -3.74710         5.06562
   C      -13.32337        -5.31827         5.38488
   F      -14.04145        -5.91066         6.34523
   C      -12.08726        -5.79910         5.05325
   C      -11.33385        -5.17393         4.04085
   C      -11.87048        -4.03522         3.37102
   C      -11.12700        -3.38352         2.36000
   C       -9.88667        -3.85924         2.02546
   C       -9.36594        -5.00558         2.69157
   C      -10.05615        -5.65304         3.67651
   C       -8.03934        -5.31771         2.14463
   O       -7.35165        -6.28578         2.42238
   C       -7.71337        -4.22731         1.21458
   C       -8.89146        -3.38637         1.06811
   C       -9.06250        -2.36288         0.17562
   C      -10.25186        -1.61085         0.05916
   N      -11.19097        -0.96626        -0.07672
   C       -8.09200        -1.93121        -0.75407
   N       -7.34024        -1.53501        -1.52589
   C       -6.46537        -3.94799         0.72650
   C       -5.26649        -4.66587         0.89231
   S       -5.14910        -6.29260         1.49431
   C       -3.41429        -6.23453         1.38453
   C       -2.95108        -5.00884         0.92379
   C       -3.99542        -4.13648         0.61015
   C       -3.76815        -2.75442         0.08112
   C       -2.28640        -2.42703        -0.16651
   C       -1.80826        -2.76873        -1.58144
   O       -1.08987        -2.02780        -2.18812
   O       -2.23144        -3.91012        -2.12411
   C       -1.36651        -3.08440         0.88671
   O       -1.60845        -2.56740         2.17167
   C       -1.51176        -4.61102         0.85802
   C       -2.69854        -7.42362         1.71952
   C       -1.85638        -8.15055         0.90710
   N       -1.49320        -7.86277        -0.42220
   O       -0.80814        -8.67730        -1.00655
   O       -1.90911        -6.82589        -0.92046
   C       -1.58040        -9.43059         1.52260
   C       -2.25344        -9.50343         2.68999
   C       -2.92807        -8.24744         2.92880
   C       -3.61019        -7.82753         4.04261
   C       -4.21685        -6.52495         4.22869
   C       -5.25907        -6.64993         5.07840
   C       -5.30454        -8.01263         5.55047
   N       -6.29580        -8.46404         6.44176
   O       -6.20242        -9.58816         6.90648
   O       -7.21323        -7.69867         6.68182
   C       -4.20793        -8.71225         5.06947
   C       -3.74763        -9.96762         5.54125
   C       -2.42795       -10.26852         5.65895
   C       -1.92139       -11.46030         6.22946
   C       -0.56783       -11.75047         6.40576
   C        0.42455       -10.84610         5.99375
   N        1.18708       -10.07051         5.63126
   C       -0.35895       -13.00845         7.01593
   C       -1.57193       -13.64471         7.28743
   S       -2.95612       -12.74551         6.81208
   S       -1.43112       -15.18834         8.06027
   C        0.29152       -14.98903         8.03443
   C        0.73794       -13.80265         7.45763
   C        2.15057       -13.70251         7.51300
   C        2.91428       -12.67595         6.93679
   N        3.57377       -11.86372         6.46717
   C        2.73611       -14.79612         8.14140
   S        1.55472       -15.99158         8.61828
   C        4.11445       -15.05300         8.38579
   C        5.12667       -14.17736         8.59497
   C        6.53607       -14.66844         8.44500
   O        6.88531       -15.82177         8.38849
   C        7.35486       -13.45026         8.32772
   C        8.68459       -13.33415         8.03671
   C        9.25441       -12.04556         7.93692
   C        8.42972       -10.89736         8.12626
   C        9.00316        -9.61490         8.01078
   C       10.33337        -9.47818         7.72833
   C       11.14891       -10.61431         7.54564
   C       10.62184       -11.87139         7.64634
   F       12.44832       -10.45011         7.27122
   F       10.87803        -8.26107         7.62347
   C        7.05849       -11.04780         8.43244
   C        6.53265       -12.30719         8.54507
   C        5.18374       -12.75375         8.87230
   C        4.25028       -12.00813         9.53798
   C        3.01845       -12.51292         9.99708
   N        2.01079       -12.89061        10.39726
   C        4.44212       -10.65846         9.90698
   N        4.54640        -9.56730        10.24346
   H      -13.57087        -2.70562         3.24001
   H      -11.68961        -6.65723         5.57207
   H      -11.55583        -2.51750         1.88237
   H       -9.63169        -6.51084         4.17572
   H       -6.34916        -3.01443         0.19136
   H       -4.17320        -2.02651         0.79212
   H       -4.32647        -2.61604        -0.85052
   H       -2.14826        -1.34511        -0.07457
   H       -2.68409        -4.51959        -1.52402
   H       -0.32916        -2.81230         0.66877
   H       -2.51302        -2.77816         2.42990
   H       -0.96770        -5.03888         1.70374
   H       -1.05605        -5.00684        -0.05378
   H       -0.96289       -10.17988         1.06589
   H       -2.27052       -10.34685         3.34822
   H       -3.86738        -5.61967         3.77581
   H       -5.94654        -5.89249         5.40186
   H       -4.48782       -10.63745         5.96114
   H       -1.67806        -9.54563         5.36023
   H        4.40941       -16.09868         8.36540
   H        9.29224       -14.21272         7.88224
   H        8.39357        -8.73586         8.14983
   H       11.25908       -12.72975         7.50202
   H        6.45098       -10.16553         8.55377
*
