# ORCA input file
# SCF done       -245.044270230934          0.000514956648
! CAM-B3LYP def2-SVP def2/J RIJCOSX Grid4 TightSCF
%maxcore 5000
%tddft
    Mode sTDDFT
    Ethresh 5.0
    maxcore 5000
end

%pal
  nprocs 6
  end
* xyz 0 1
   C       -3.50015         3.63875         0.84499
   C       -3.95960         4.34319         1.92190
   F       -3.88710         5.67975         1.93278
   C       -4.51459         3.67515         3.03300
   F       -4.95612         4.39228         4.07372
   C       -4.60172         2.31133         3.05145
   C       -4.13611         1.55648         1.95702
   C       -3.57649         2.23085         0.83222
   C       -3.10740         1.49556        -0.27884
   C       -3.19810         0.12692        -0.26874
   C       -3.75151        -0.53811         0.86204
   C       -4.20893         0.14617         1.95165
   C       -3.71826        -1.99489         0.64591
   O       -3.99403        -2.86462         1.43471
   C       -3.13478        -2.17722        -0.72207
   C       -2.81770        -0.86596        -1.26597
   C       -2.32519        -0.60669        -2.51504
   C       -2.06919         0.68902        -3.01443
   N       -1.83480         1.71462        -3.47205
   C       -2.01900        -1.59422        -3.47625
   N       -1.76148        -2.34882        -4.30167
   C       -2.88027        -3.39356        -1.24915
   C       -3.39265        -4.61575        -0.68177
   S       -2.29071        -5.86346        -0.21760
   C       -3.58196        -6.89239         0.32724
   C       -4.80597        -6.28989         0.10098
   C       -4.69721        -5.00510        -0.47434
   C       -5.90981        -4.27736        -0.98044
   F       -5.80978        -2.90899        -0.88964
   C       -7.18476        -4.74287        -0.26633
   F       -7.16774        -4.39549         1.05584
   C       -7.27281        -6.26854        -0.37628
   F       -7.18246        -6.60063        -1.70904
   C       -6.13036        -6.90648         0.41832
   F       -6.12487        -8.26418         0.16733
   C       -3.32227        -8.14370         0.97152
   N       -2.31770        -9.00684         0.61278
   C       -1.39752        -8.90331        -0.49498
   C       -0.03322        -8.38711        -0.04617
   C       -2.29954       -10.15997         1.43065
   O       -1.51749       -11.07408         1.28195
   C       -3.37243        -9.93845         2.36708
   C       -3.98645        -8.69762         2.06175
   C       -5.02932        -8.48912         3.04190
   O       -5.80034        -7.56783         3.23283
   N       -5.00035        -9.63869         3.85174
   C       -5.94315        -9.76889         4.93722
   C       -7.16221       -10.59289         4.52826
   C       -4.01047       -10.51063         3.46265
   C       -3.61113       -11.75340         4.01704
   C       -4.20058       -12.50641         4.97835
   C       -3.64786       -13.72843         5.44361
   S       -2.14020       -14.33248         4.83362
   C       -2.21169       -15.73765         5.85647
   C       -3.37090       -15.72678         6.61663
   C       -4.16621       -14.58982         6.40300
   C       -5.48368       -14.39886         7.09863
   F       -5.70774       -13.08405         7.43697
   C       -5.59021       -15.25837         8.36625
   F       -4.74370       -14.79810         9.33833
   C       -5.19781       -16.69918         8.02480
   F       -5.95847       -17.10452         6.95509
   C       -3.70632       -16.74028         7.67014
   F       -3.37945       -18.01714         7.28260
   C       -1.20483       -16.74211         5.78839
   C        0.10103       -16.57044         5.46316
   C        0.91806       -17.72319         4.98054
   O        0.64094       -18.89431         5.06523
   C        2.09464       -17.10802         4.33068
   C        3.09102       -17.70863         3.61601
   C        4.11596       -16.90959         3.06127
   C        4.08415       -15.49677         3.25050
   C        5.10605       -14.70627         2.68704
   C        6.11505       -15.29057         1.97444
   C        6.14759       -16.68791         1.79059
   C        5.16953       -17.48139         2.32140
   F        7.14888       -17.23300         1.08771
   F        7.08659       -14.53851         1.44216
   C        3.04425       -14.90263         4.00063
   C        2.06941       -15.69879         4.53935
   C        0.92298       -15.37795         5.38094
   C        0.80005       -14.26754         6.17225
   C       -0.18237       -14.16164         7.17880
   N       -0.94374       -14.08505         8.03422
   C        1.68873       -13.17412         6.13389
   N        2.38081       -12.25900         6.12595
   H       -3.07985         4.16559         0.00255
   H       -5.02863         1.81507         3.90882
   H       -2.68512         2.03417        -1.11181
   H       -4.62552        -0.38429         2.79419
   H       -2.23991        -3.50390        -2.11532
   H       -6.03275        -4.48652        -2.05588
   H       -8.06013        -4.25336        -0.71175
   H       -8.23768        -6.64978        -0.02392
   H       -6.33805        -6.79935         1.49862
   H       -1.82744        -8.26302        -1.26716
   H       -1.27950        -9.91475        -0.89592
   H       -0.11865        -7.40441         0.41131
   H        0.63143        -8.31822        -0.90219
   H        0.39697        -9.07551         0.67648
   H       -6.26430        -8.75190         5.18162
   H       -5.44207       -10.19453         5.80897
   H       -7.70468       -10.07973         3.73820
   H       -7.82295       -10.71893         5.38130
   H       -6.86993       -11.57352         4.15895
   H       -2.70255       -12.13096         3.56009
   H       -5.12643       -12.20819         5.43892
   H       -6.30897       -14.67949         6.42477
   H       -6.60549       -15.19780         8.77687
   H       -5.41284       -17.39165         8.84650
   H       -3.12321       -16.53454         8.58089
   H       -1.52776       -17.76778         5.93198
   H        3.09827       -18.77883         3.47617
   H        5.09748       -13.63595         2.82138
   H        5.20882       -18.54884         2.17085
   H        3.03532       -13.83121         4.12334
*
