# ORCA input file
# SCF done       -237.886732587919          0.000486063867
! CAM-B3LYP def2-SVP def2/J RIJCOSX Grid4 TightSCF
%maxcore 5000
%tddft
    Mode sTDDFT
    Ethresh 5.0
    maxcore 5000
end

%pal
  nprocs 6
  end
* xyz 0 1
   C      -11.05422         1.24522         3.95075
   C      -11.86444         1.17342         5.04893
   F      -12.61866         2.22232         5.39892
   C      -11.91834        -0.00224         5.82556
   F      -12.72210        -0.04426         6.89556
   C      -11.16009        -1.08967         5.49312
   C      -10.31500        -1.04681         4.36709
   C      -10.26151         0.14022         3.57945
   C       -9.42641         0.20373         2.44116
   C       -8.67268        -0.88840         2.09687
   C       -8.72579        -2.06606         2.89404
   C       -9.51738        -2.15398         4.00308
   C       -7.80945        -3.08157         2.34188
   O       -7.50792        -4.13580         2.85097
   C       -7.22645        -2.46322         1.11493
   C       -7.75887        -1.11830         0.98317
   C       -7.52529        -0.25608        -0.05434
   C       -8.09415         1.03199        -0.15398
   N       -8.52323         2.08808        -0.28452
   C       -6.71960        -0.54394        -1.17763
   N       -6.10790        -0.71859        -2.13294
   C       -6.24165        -3.02507         0.36712
   C       -5.89321        -4.41152         0.36816
   C       -4.55024        -4.80576         0.16721
   C       -4.14019        -6.18758         0.18394
   N       -2.83156        -6.49181         0.15124
   C       -1.95127        -5.52566         0.04823
   C       -2.36758        -4.15786        -0.06086
   N       -3.63280        -3.83580         0.01680
   C       -1.39762        -3.13874        -0.24518
   N       -0.58304        -2.34709        -0.38734
   C       -0.57226        -5.85518         0.02716
   N        0.54689        -6.09598        -0.00085
   C       -5.08413        -7.22747         0.33221
   C       -6.43081        -6.83447         0.45132
   C       -6.83587        -5.44886         0.47861
   N       -8.16314        -5.32885         0.55314
   S       -8.81223        -6.78860         0.62117
   N       -7.47990        -7.65784         0.50133
   C       -4.77814        -8.62077         0.48770
   N       -3.88566        -9.37129        -0.21863
   C       -3.16355        -8.98994        -1.40927
   C       -4.10693        -8.66048        -2.56126
   C       -3.88032       -10.71430         0.22077
   O       -3.19742       -11.57912        -0.28655
   C       -4.82768       -10.74179         1.31378
   C       -5.38151        -9.45141         1.43416
   C       -6.29102        -9.45060         2.56869
   O       -6.97541        -8.58979         3.07063
   N       -6.24067       -10.77769         3.04137
   C       -6.99107       -11.18136         4.20783
   C       -6.11622       -11.23069         5.45772
   C       -5.37558       -11.55726         2.31617
   C       -5.14278       -12.92258         2.57421
   C       -4.30247       -13.68801         1.81569
   C       -4.06301       -15.05991         2.05119
   C       -4.54021       -15.86606         3.06789
   C       -4.04305       -17.18550         2.89488
   C       -3.20717       -17.15299         1.67605
   C       -3.21926       -15.88632         1.19246
   C       -2.50023       -18.22719         1.12146
   N       -1.90642       -19.08861         0.64844
   C       -4.28775       -18.27641         3.69852
   C       -3.86706       -19.62354         3.49554
   C       -4.38887       -20.41577         4.49431
   C       -5.11783       -19.55221         5.41392
   C       -5.06151       -18.27601         4.95084
   C       -5.62661       -17.16649         5.58866
   N       -6.09751       -16.26995         6.13172
   C       -4.19982       -21.81642         4.62989
   C       -4.95644       -22.69890         5.33501
   C       -4.38907       -24.02027         5.73444
   O       -3.38646       -24.53618         5.30379
   C       -5.28195       -24.51090         6.80428
   C       -5.13949       -25.60958         7.60207
   C       -6.11122       -25.86824         8.59457
   C       -7.21431       -24.97749         8.74402
   C       -8.17320       -25.23562         9.74415
   C       -8.04492       -26.32782        10.55561
   C       -6.95523       -27.20976        10.40508
   C       -6.00830       -26.98626         9.44514
   F       -6.85503       -28.27097        11.21492
   F       -8.95592       -26.57100        11.50540
   C       -7.34170       -23.85327         7.89659
   C       -6.39156       -23.62680         6.93696
   C       -6.27528       -22.58398         5.92175
   C       -7.30253       -21.81162         5.44747
   C       -7.21199       -21.01882         4.28283
   N       -7.21151       -20.41096         3.30943
   C       -8.59396       -21.79812         6.01434
   N       -9.65007       -21.74239         6.45950
   H      -11.02598         2.15202         3.36695
   H      -11.21162        -1.98127         6.09819
   H       -9.40244         1.11811         1.87072
   H       -9.53726        -3.05904         4.59092
   H       -5.63115        -2.40567        -0.27810
   H       -2.54103        -9.85121        -1.66627
   H       -2.51698        -8.13905        -1.18236
   H       -4.75010        -9.50997        -2.77996
   H       -3.52853        -8.42502        -3.45009
   H       -4.73471        -7.80490        -2.31896
   H       -7.46152       -12.15050         4.02275
   H       -7.77343       -10.42881         4.33794
   H       -5.29836       -11.93749         5.33797
   H       -6.71523       -11.53506         6.31101
   H       -5.69829       -10.24731         5.65858
   H       -5.66874       -13.37445         3.40216
   H       -3.78583       -13.23643         0.97874
   H       -5.18675       -15.56931         3.86890
   H       -2.70538       -15.52308         0.32182
   H       -3.29046       -19.96778         2.65939
   H       -5.56926       -19.86801         6.33665
   H       -3.30708       -22.22764         4.16904
   H       -4.29565       -26.27124         7.47925
   H       -9.01514       -24.57305         9.87064
   H       -5.18032       -27.67016         9.34302
   H       -8.18189       -23.19126         8.03482
*
