# ORCA input file
# SCF done       -207.854286557375          0.000739605360
! CAM-B3LYP def2-SVP def2/J RIJCOSX Grid4 TightSCF
%maxcore 5000
%tddft
    Mode sTDDFT
    Ethresh 5.0
    maxcore 5000
end

%pal
  nprocs 6
  end
* xyz 0 1
   C        0.59757        -0.71691        -5.50007
   S        1.11685        -1.51378        -4.06408
   C       -0.12270        -1.56222        -6.27957
   C       -0.81890        -1.51790        -7.57795
   O       -0.93659        -0.62285        -8.37346
   N       -1.35024        -2.79558        -7.73029
   C       -2.14617        -3.18440        -8.87477
   C       -3.63310        -2.97160        -8.61372
   C       -1.08638        -3.65194        -6.67118
   O       -1.48920        -4.79182        -6.60485
   C       -0.27302        -2.86767        -5.73291
   C        0.35057        -3.02576        -4.51741
   C        0.47221        -4.15325        -3.64932
   C        0.05182        -5.38688        -3.98121
   C        0.22652        -6.55471        -3.15236
   C        0.90570        -7.69474        -3.56096
   N        1.53294        -7.87542        -4.79863
   O        2.00230        -8.97772        -5.03754
   O        1.56793        -6.93212        -5.57598
   C        0.92669        -8.66424        -2.49710
   C        0.19240        -8.16940        -1.47680
   C       -0.32748        -6.86444        -1.84813
   C       -1.28391        -6.15019        -1.13672
   C       -1.50217        -4.74873        -1.11636
   C       -2.30308        -4.43666        -0.04764
   C       -2.69931        -5.63225         0.60848
   N       -3.57052        -5.65465         1.70199
   O       -3.86900        -6.73470         2.19617
   O       -3.98291        -4.58229         2.11600
   C       -2.16368        -6.72910        -0.09223
   C       -2.54547        -8.06465         0.02777
   C       -2.38387        -8.99056        -0.98538
   C       -2.55549       -10.37123        -0.87608
   C       -2.72631       -11.10476         0.30801
   C       -2.57952       -12.46899         0.05253
   O       -2.71139       -13.32787         1.06303
   C       -2.34715       -14.68983         0.97025
   C       -2.33868       -12.65027        -1.35067
   C       -2.26224       -11.32703        -1.93544
   C       -1.79769       -11.01084        -3.19862
   C       -2.05123        -9.85140        -3.97440
   C       -1.24790        -9.90105        -5.09177
   O       -1.12205        -9.06843        -6.10158
   C       -1.90636        -7.89098        -6.11345
   C       -0.41352       -11.10870        -5.02045
   C       -0.77263       -11.79246        -3.92704
   C       -2.41410       -13.85429        -2.06138
   C       -2.64018       -13.99546        -3.41235
   C       -2.68786       -15.24866        -4.04384
   C       -2.52194       -16.50888        -3.47869
   C       -2.68810       -17.49741        -4.47001
   C       -2.93280       -16.77477        -5.73565
   C       -2.93619       -15.44442        -5.46576
   C       -3.06510       -17.32891        -7.01607
   N       -3.14271       -17.72015        -8.09257
   C       -2.66117       -18.86781        -4.28487
   C       -2.94437       -19.88270        -5.23499
   C       -2.80140       -21.11375        -4.62483
   C       -2.40439       -20.89607        -3.24627
   C       -2.33490       -19.55596        -3.02191
   C       -2.00974       -18.96029        -1.80089
   N       -1.75528       -18.48401        -0.78504
   C       -3.00267       -22.39555        -5.19574
   S       -2.54996       -23.84690        -4.32066
   C       -3.52668       -22.76059        -6.41752
   C       -4.13259       -22.08572        -7.57628
   O       -4.35584       -20.91925        -7.77899
   N       -4.46145       -23.11558        -8.45171
   C       -5.04808       -22.87566        -9.75331
   C       -3.97288       -22.60861       -10.80045
   C       -4.15084       -24.38110        -7.98048
   O       -4.36254       -25.40541        -8.58398
   C       -3.55678       -24.15717        -6.64870
   C       -3.06003       -24.91120        -5.60905
   C       -2.90956       -26.32649        -5.42576
   C       -3.25478       -27.24613        -6.32679
   H        0.85607         0.30865        -5.67193
   H       -1.94208        -4.23891        -9.07504
   H       -1.81634        -2.57520        -9.71910
   H       -3.95336        -3.56478        -7.76030
   H       -4.20625        -3.27380        -9.48544
   H       -3.83223        -1.92207        -8.41085
   H        0.99174        -3.97825        -2.71585
   H       -0.35265        -5.54844        -4.97292
   H        1.46576        -9.58977        -2.54467
   H        0.05804        -8.61361        -0.51046
   H       -1.04109        -4.04125        -1.77425
   H       -2.60434        -3.45575         0.26978
   H       -3.06487        -8.34364         0.93483
   H       -2.07581        -8.62141        -1.94982
   H       -2.90988       -10.69640         1.28304
   H       -2.31072       -15.04750         1.99883
   H       -1.36409       -14.81759         0.51214
   H       -3.09845       -15.26935         0.42651
   H       -2.83295        -9.14230        -3.78548
   H       -1.44495        -7.21054        -6.82581
   H       -1.93349        -7.42044        -5.12884
   H       -2.92739        -8.11880        -6.42991
   H        0.35631       -11.32854        -5.73301
   H       -0.32414       -12.68800        -3.54413
   H       -2.35808       -14.77085        -1.49685
   H       -2.82652       -13.12388        -4.02357
   H       -2.33098       -16.72202        -2.44688
   H       -3.07993       -14.64819        -6.17288
   H       -3.24101       -19.71495        -6.25179
   H       -2.21527       -21.67833        -2.53396
   H       -5.70797       -22.00979        -9.66001
   H       -5.62935       -23.76254       -10.01619
   H       -3.39630       -21.72779       -10.52780
   H       -4.43705       -22.43669       -11.76724
   H       -3.30349       -23.46238       -10.87999
   H       -2.48219       -26.61691        -4.47419
   H       -3.68276       -26.97741        -7.27748
   H       -3.11691       -28.29423        -6.12592
*
