# ORCA input file
# SCF done       -171.969137315408          0.000698258965
! CAM-B3LYP def2-SVP def2/J RIJCOSX Grid4 TightSCF
%maxcore 5000
%tddft
    Mode sTDDFT
    Ethresh 5.0
    maxcore 5000
end

%pal
  nprocs 6
  end
* xyz 0 1
   C       -5.79381         2.80289        -2.86846
   S       -5.07272         4.01946        -1.87361
   C       -6.52747         4.14164        -0.93090
   C       -7.51148         3.25390        -1.39696
   C       -7.06066         2.49626        -2.51197
   C       -8.74233         3.21688        -0.71536
   C       -8.94404         4.08211         0.37240
   S      -10.49215         3.79844         1.11478
   C      -10.85073         2.56602        -0.03809
   C       -9.86144         2.36615        -0.93463
   C       -7.95789         4.99100         0.79664
   C       -6.73524         4.99535         0.14779
   N       -8.16104         5.82607         1.89820
   C       -9.26383         6.59243         2.10781
   S      -10.36511         6.94792         0.81443
   C      -11.26417         7.98595         1.87643
   N      -12.41264         8.59419         1.37192
   O      -13.04136         9.32820         2.11460
   O      -12.70159         8.34840         0.21126
   C      -10.72704         8.06396         3.13330
   C       -9.58291         7.26102         3.29584
   C       -8.90117         7.16521         4.56360
   C       -8.04743         6.19874         4.94626
   C       -7.39404         6.07277         6.22616
   C       -7.11444         7.01015         7.14392
   C       -7.39588         8.47483         7.01287
   C       -6.45188         6.61102         8.43539
   N       -5.14828         7.23125         8.55777
   C       -4.37128         7.16158         9.64872
   C       -4.67022         6.46287        10.78459
   C       -3.88880         6.40823        11.95184
   C       -2.77615         7.12884        12.31757
   C       -2.07294         6.96077        13.53426
   C       -1.02849         7.81831        13.71412
   C       -0.84607         8.72476        12.64937
   S       -2.02908         8.43571        11.40244
   C        0.09464         9.73757        12.54186
   C        1.11384        10.07231        13.45078
   C        1.85820        11.15379        13.06800
   C        1.46192        11.72129        11.84128
   S        0.11414        10.83667        11.17677
   C        2.00746        12.84402        11.23710
   C        1.58042        13.34673        10.02110
   C        2.01238        14.49411         9.37535
   C        1.80772        14.62675         7.92321
   O        1.13239        13.91499         7.20574
   C        2.63511        15.78438         7.51187
   C        2.86645        16.27758         6.26224
   C        3.73339        17.38455         6.10930
   C        4.34459        17.95540         7.26172
   C        5.21245        19.05355         7.10352
   C        5.46039        19.56284         5.85951
   C        4.85512        18.99838         4.72133
   C        4.00886        17.93169         4.84183
   F        5.11676        19.51705         3.50998
   F        6.28762        20.61026         5.71217
   C        4.07706        17.42605         8.54681
   C        3.23079        16.35890         8.66988
   C        2.75002        15.62748         9.84560
   C        2.83619        16.09379        11.14067
   C        2.11588        15.56681        12.22843
   N        1.51950        15.21829        13.14732
   C        3.56940        17.23335        11.51742
   N        4.16983        18.13954        11.89135
   H       -5.21513         2.38777        -3.67008
   H       -7.66168         1.76373        -3.01883
   H      -11.79562         2.06350         0.02880
   H       -9.90877         1.63968        -1.72481
   H       -5.95141         5.66428         0.46812
   H       -7.32713         6.10905         2.39785
   H      -11.16556         8.66252         3.91130
   H       -9.19635         7.92602         5.26851
   H       -7.86864         5.36387         4.28184
   H       -7.07619         5.06015         6.44685
   H       -7.27851         8.80675         5.98354
   H       -6.72883         9.05177         7.65051
   H       -8.41615         8.69538         7.32803
   H       -6.35327         5.51996         8.49440
   H       -7.07317         6.94155         9.27829
   H       -4.78281         7.67851         7.73272
   H       -3.44142         7.70461         9.57283
   H       -5.57151         5.86790        10.80102
   H       -4.22271         5.69801        12.69901
   H       -2.36507         6.20895        14.24657
   H       -0.39926         7.83116        14.58527
   H        1.27677         9.51833        14.35777
   H        2.67102        11.56607        13.63843
   H        2.82089        13.32076        11.76428
   H        0.88462        12.74117         9.44706
   H        2.39640        15.83084         5.39925
   H        5.68214        19.49965         7.96626
   H        3.55292        17.51035         3.95952
   H        4.55716        17.87743         9.40013
*
