# ORCA input file
# SCF done       -187.930550195167          0.000992871297
! CAM-B3LYP def2-SVP def2/J RIJCOSX Grid4 TightSCF
%maxcore 5000
%tddft
    Mode sTDDFT
    Ethresh 5.0
    maxcore 5000
end

%pal
  nprocs 6
  end
* xyz 0 1
   C       -7.15730        -2.84708         0.15206
   C       -6.37085        -3.44436         1.10131
   C       -6.29295        -4.83880         1.30160
   N       -6.18702        -5.96358         1.50491
   C       -5.55037        -2.75558         2.02001
   N       -4.87027        -2.27064         2.80766
   C       -8.06150        -3.53128        -0.76228
   C       -8.77481        -2.56271        -1.51077
   C       -9.70104        -2.90078        -2.46760
   C       -9.94126        -4.25999        -2.69295
   C       -9.22354        -5.22125        -1.94073
   C       -8.28339        -4.87974        -0.97687
   S       -9.66607        -6.84094        -2.38690
   C      -10.79539        -6.21424        -3.55814
   C      -10.83957        -4.86186        -3.61565
  Br      -11.80642        -7.40299        -4.59700
   C       -8.33183        -1.21004        -1.12317
   O       -8.66858        -0.16941        -1.64288
   C       -7.29580        -1.41827        -0.07339
   C       -6.50083        -0.43328         0.41789
   C       -6.75929         0.96908         0.26044
   C       -5.73459         1.86485        -0.01278
   C       -5.98500         3.19883        -0.30506
   F       -4.90745         3.97222        -0.54828
   C       -7.25400         3.78206        -0.30596
   C       -8.29211         2.91712         0.14740
   C       -8.05766         1.52294         0.40497
   N       -9.15728         0.90354         0.82358
   S      -10.36852         1.95521         0.84744
   N       -9.56103         3.25622         0.35227
   C       -7.58319         5.11079        -0.69309
   C       -6.98150         5.88510        -1.64780
   C       -7.38418         7.20478        -2.00213
   C       -6.73893         7.71702        -3.08220
   C       -5.79962         6.82531        -3.65591
   S       -5.72594         5.34246        -2.74403
   C       -5.03845         7.00082        -4.79634
   C       -4.99169         8.11257        -5.66728
   C       -4.17376         7.93210        -6.73988
   C       -3.53050         6.66532        -6.78743
   S       -3.98838         5.73138        -5.37918
   C       -2.73241         6.23892        -7.82017
   C       -2.09837         4.98963        -8.00443
   C       -1.99733         3.96549        -7.06014
   C       -1.41992         2.74677        -7.36748
   F       -1.37721         1.83034        -6.38471
   C       -0.93525         2.37681        -8.62684
   C       -0.95796         3.42135        -9.59006
   C       -1.51132         4.71066        -9.27652
   N       -1.41854         5.55359       -10.29768
   S       -0.69846         4.81247       -11.52980
   N       -0.46961         3.37931       -10.82718
   C       -0.41523         1.06985        -8.84956
   C       -0.27728         0.37532       -10.01065
   C       -0.80050         0.57502       -11.34213
   C       -1.96779         1.21364       -11.67301
   C       -2.44530         1.35252       -12.99079
   N       -2.86960         1.52282       -14.04404
   C       -2.86698         1.74695       -10.72929
   N       -3.65040         2.16987       -10.00397
   C        0.00370        -0.23364       -12.25150
   C        0.84272        -1.08205       -11.48561
   C        0.64638        -0.79251       -10.05038
   O        1.15500        -1.35011        -9.10584
   C        1.68828        -1.99858       -12.06137
   C        1.71595        -2.07333       -13.45824
   C        0.88638        -1.21063       -14.21380
   C        0.02361        -0.28967       -13.63177
   S        1.08736        -1.46478       -15.92080
   C        2.26383        -2.71176       -15.60085
   C        2.49682        -2.92756       -14.28472
  Br        3.07286        -3.60983       -17.03477
   H      -10.22357        -2.13947        -3.02531
   H       -7.75571        -5.64856        -0.43761
   H      -11.47637        -4.31018        -4.28274
   H       -5.58045        -0.69207         0.92623
   H       -4.71343         1.51857        -0.06563
   H       -8.48635         5.50230        -0.24240
   H       -8.14180         7.72235        -1.44096
   H       -6.91765         8.69574        -3.48960
   H       -5.56385         9.00415        -5.48446
   H       -4.01645         8.66233        -7.51363
   H       -2.60909         6.93058        -8.64390
   H       -2.36521         4.09623        -6.05627
   H       -0.03042         0.56364        -7.96830
   H        2.30954        -2.63856       -11.45468
   H       -0.58841         0.34960       -14.24631
   H        3.18985        -3.65835       -13.90942
*
