# ORCA input file
# SCF done       -207.345618250831          0.000834571173
! CAM-B3LYP def2-SVP def2/J RIJCOSX Grid4 TightSCF
%maxcore 5000
%tddft
    Mode sTDDFT
    Ethresh 5.0
    maxcore 5000
end

%pal
  nprocs 6
  end
* xyz 0 1
   C      -12.16973         1.04156        -2.74168
   C      -12.79679         0.45018        -3.81465
   C      -13.89338        -0.42132        -3.67602
   N      -14.81377        -1.10729        -3.61231
   C      -12.49209         0.67936        -5.16962
   N      -12.28595         0.79765        -6.29422
   C      -12.50631         0.77316        -1.34594
   C      -11.85216         1.72873        -0.53434
   C      -12.02073         1.78612         0.82570
   C      -12.88530         0.85319         1.41191
   C      -13.48240        -0.13461         0.59905
   C      -13.29595        -0.20321        -0.77578
   S      -14.50399        -1.19688         1.52111
   C      -14.15151        -0.28057         2.95978
   C      -13.29321         0.74829         2.77173
  Br      -14.96604        -0.78310         4.57041
   C      -11.02256         2.59518        -1.39735
   O      -10.33902         3.53238        -1.01839
   C      -11.18423         2.09235        -2.76103
   C      -10.48575         2.51635        -3.88058
   C       -9.55512         3.53417        -4.02494
   S       -9.10053         4.67569        -2.79040
   C       -8.84279         3.80465        -5.23375
   C       -8.92737         3.11980        -6.44410
   C       -8.15764         3.48656        -7.53572
   O       -8.35261         2.71118        -8.62540
   C       -7.72630         2.95912        -9.86470
   C       -7.26041         4.58988        -7.41987
   O       -6.51091         4.91342        -8.51551
   C       -5.61209         5.99178        -8.43336
   C       -7.18152         5.27658        -6.22587
   C       -7.95776         4.90179        -5.12635
   C       -7.99150         5.51046        -3.83991
   C       -7.24079         6.59735        -3.41096
   C       -7.32628         7.20221        -2.16449
   C       -6.53760         8.26463        -1.67482
   C       -6.84390         8.65180        -0.39534
   C       -7.90068         7.91933         0.16634
   S       -8.48229         6.71502        -0.95758
   C       -8.52296         7.99119         1.41081
   C       -8.21391         8.70903         2.57583
   C       -9.05684         8.43552         3.62319
   C      -10.07161         7.50381         3.32301
   S       -9.93522         6.99621         1.66109
   C      -11.02745         6.98489         4.18499
   C      -12.01600         6.07433         3.83934
   S      -12.31240         5.58839         2.20520
   C      -12.90747         5.38647         4.71207
   C      -12.93219         5.47658         6.10086
   C      -13.80237         4.71541         6.85786
   O      -13.70110         4.92550         8.19037
   C      -14.56893         4.32542         9.12923
   C      -14.66849         3.79172         6.19669
   O      -15.48857         3.05047         6.98512
   C      -16.53250         2.30453         6.40185
   C      -14.63142         3.68216         4.81988
   C      -13.79614         4.49961         4.04620
   C      -13.65072         4.54250         2.63474
   C      -14.24522         3.95460         1.52147
   C      -15.33343         3.14402         1.29179
   C      -16.50418         2.78263         2.03084
   C      -17.17152         3.58360         2.93099
   C      -18.38857         3.22354         3.53434
   N      -19.37261         2.95753         4.06527
   C      -16.74747         4.89321         3.22824
   N      -16.45145         5.98006         3.45252
   C      -17.02591         1.54794         1.44515
   C      -16.37926         1.34032         0.20023
   C      -15.35534         2.38671         0.01810
   O      -14.64799         2.57366        -0.95176
   C      -16.67850         0.27829        -0.61706
   C      -17.62238        -0.64678        -0.15678
   C      -18.23452        -0.44905         1.10285
   C      -17.96197         0.64985         1.91245
   S      -19.33712        -1.73489         1.48344
   C      -18.96824        -2.50728        -0.03762
   C      -18.06586        -1.83893        -0.79253
  Br      -19.81012        -4.12468        -0.47520
   H      -11.51891         2.53448         1.41924
   H      -13.77251        -0.98105        -1.34765
   H      -12.96803         1.41390         3.55119
   H      -10.66907         1.95773        -4.78891
   H       -9.59646         2.28557        -6.57995
   H       -6.64164         2.85233        -9.79990
   H       -7.97121         3.95008       -10.25161
   H       -8.12662         2.19894       -10.53515
   H       -5.13599         6.04565        -9.41122
   H       -6.13049         6.93454        -8.23199
   H       -4.84772         5.82173        -7.66849
   H       -6.51295         6.11524        -6.12779
   H       -6.51945         7.01759        -4.09936
   H       -5.76202         8.71347        -2.27063
   H       -6.34523         9.44387         0.13425
   H       -7.37868         9.38416         2.63108
   H       -8.96807         8.87683         4.60034
   H      -10.98198         7.30476         5.21651
   H      -12.27415         6.14772         6.62767
   H      -14.46303         3.23939         9.14310
   H      -15.61146         4.58699         8.94008
   H      -14.26088         4.73430        10.09153
   H      -17.18006         2.93872         5.79118
   H      -17.10489         1.90721         7.23802
   H      -16.15411         1.47184         5.80522
   H      -15.24144         2.94184         4.33248
   H      -13.67579         4.11465         0.60626
   H      -16.19448         0.14825        -1.57268
   H      -18.45441         0.76661         2.86447
   H      -17.71736        -2.16628        -1.75514
*
