# ORCA input file
# SCF done       -170.506095887785          0.000310504336
! CAM-B3LYP def2-SVP def2/J RIJCOSX Grid4 TightSCF
%maxcore 5000
%tddft
    Mode sTDDFT
    Ethresh 5.0
    maxcore 5000
end

%pal
  nprocs 6
  end
* xyz 0 1
   C       -5.15644         0.30294        -4.35095
   C       -4.33231        -0.60634        -3.70550
   C       -4.60119        -0.91286        -2.38607
   C       -5.66588        -0.29550        -1.71910
   C       -5.71893        -0.83744        -0.33997
   O       -6.51122        -0.60857         0.54153
   N       -4.66244        -1.72514        -0.25387
   C       -3.93879        -1.83176        -1.43982
   O       -2.98473        -2.55207        -1.59693
   C       -4.32788        -2.45787         0.94757
   C       -3.29000        -1.71087         1.77810
   C       -6.47166         0.62116        -2.34611
   C       -6.23574         0.91453        -3.70302
   C       -7.11255         1.85950        -4.36197
   S       -7.72458         3.17743        -3.40263
   C       -8.65251         3.79407        -4.74140
   C       -8.50192         2.97949        -5.85413
   C       -7.62689         1.89384        -5.64538
   C       -7.41921         0.83081        -6.68262
   C       -7.98759         1.23700        -8.04223
   C       -9.38024         1.87083        -7.90623
   N      -10.37009         1.03262        -7.25114
   C       -9.24773         3.18738        -7.13488
   C       -9.42766         4.97063        -4.58281
   C       -9.72079         5.47389        -3.35097
   C      -10.47722         6.61479        -3.04012
   C      -10.90896         6.84830        -1.75424
   C      -11.67616         7.91685        -1.23224
   C      -12.03515         7.76919         0.07821
   C      -11.59020         6.56353         0.65831
   S      -10.62225         5.66461        -0.48810
   C      -11.88346         5.96168         1.86934
   C      -12.68587         6.35939         2.95814
   C      -12.86405         5.38106         3.89424
   C      -12.23955         4.14540         3.58272
   S      -11.30667         4.32616         2.11439
   C      -12.40891         2.93474         4.21444
   C      -11.96870         1.69252         3.72496
   S      -10.97154         1.56197         2.30924
   C      -11.16214        -0.16988         2.24517
   C      -11.92159        -0.61992         3.32258
   C      -12.33946         0.41504         4.16547
   C      -13.15355         0.17400         5.39850
   C      -13.05638        -1.28835         5.82788
   C      -13.33468        -2.23138         4.64551
   N      -14.63622        -2.05789         4.02227
   C      -12.25472        -2.05781         3.57254
   C      -10.60865        -0.74762         1.07209
   C      -10.80636        -1.95167         0.49202
   C      -10.34961        -2.21540        -0.85474
   C      -11.08099        -3.11089        -1.65913
   C      -10.77273        -3.19759        -2.99508
   C       -9.74012        -2.43548        -3.55742
   C       -9.72949        -2.66906        -5.00925
   O       -9.05063        -2.15416        -5.86978
   N      -10.72795        -3.60371        -5.24324
   C      -11.40088        -3.97933        -4.08710
   O      -12.30747        -4.77249        -4.04733
   C      -11.03077        -4.14328        -6.55030
   C      -10.26434        -5.43650        -6.80604
   C       -8.95260        -1.62536        -2.76207
   C       -9.26116        -1.53002        -1.41651
   H       -4.93542         0.56893        -5.37154
   H       -3.49981        -1.06245        -4.21817
   H       -3.93796        -3.43201         0.64179
   H       -5.25206        -2.58812         1.51606
   H       -2.37902        -1.57216         1.20052
   H       -3.05391        -2.28053         2.67247
   H       -3.67442        -0.73710         2.07313
   H       -7.28367         1.09812        -1.81799
   H       -7.90023        -0.09183        -6.33920
   H       -6.36074         0.60401        -6.80451
   H       -8.04096         0.35383        -8.68236
   H       -7.32398         1.96015        -8.52203
   H       -9.76942         2.08808        -8.90972
   H      -10.10556         0.87105        -6.28485
   H      -10.41596         0.12660        -7.70502
   H      -10.24551         3.57554        -6.92567
   H       -8.72081         3.91920        -7.75488
   H       -9.80983         5.44380        -5.47641
   H       -9.36500         4.90752        -2.49639
   H      -10.75743         7.30848        -3.82054
   H      -11.95302         8.75843        -1.84328
   H      -12.62959         8.47792         0.62780
   H      -13.12665         7.33919         3.01487
   H      -13.46552         5.49495         4.77951
   H      -13.01835         2.92524         5.10813
   H      -14.20013         0.43916         5.20652
   H      -12.80444         0.82002         6.20771
   H      -13.76696        -1.48296         6.63488
   H      -12.05275        -1.49197         6.20546
   H      -13.30370        -3.26639         5.00988
   H      -14.69557        -1.14855         3.57730
   H      -15.37611        -2.12247         4.71255
   H      -12.62636        -2.51630         2.65535
   H      -11.34525        -2.58800         3.86769
   H      -10.01844        -0.03005         0.51497
   H      -11.43176        -2.70423         0.94669
   H      -11.89791        -3.68252        -1.24495
   H      -10.75620        -3.38403        -7.28687
   H      -12.10735        -4.32692        -6.59053
   H       -9.19300        -5.25713        -6.74680
   H      -10.50226        -5.81716        -7.79533
   H      -10.53880        -6.18529        -6.06671
   H       -8.12670        -1.07696        -3.18766
   H       -8.64414        -0.91752        -0.77809
*
