# ORCA input file
# SCF done       -110.862110909031          0.000504982649
! CAM-B3LYP def2-SVP def2/J RIJCOSX Grid4 TightSCF
%maxcore 5000
%tddft
    Mode sTDDFT
    Ethresh 5.0
    maxcore 5000
end

%pal
  nprocs 6
  end
* xyz 0 1
   C       -0.64049        -0.64519         1.34929
   O       -0.34440         0.63529         1.63725
   C       -0.51928         1.30302         0.47713
   N       -0.90060         0.52970        -0.50281
   C       -0.98350        -0.71426         0.03264
   C       -0.28757         2.72040         0.39783
   C        0.11646         3.49375         1.49646
   N        0.33279         4.78115         1.39783
   C        0.14926         5.36023         0.20871
   N       -0.24053         4.71339        -0.89643
   C       -0.45087         3.42098        -0.80387
   C        0.40785         6.77900         0.16118
   N        0.44745         7.54733        -0.97387
   C        0.16238         7.14442        -2.32992
   C       -1.33897         7.11219        -2.59793
   C        0.76611         8.88655        -0.68165
   O        0.87530         9.74781        -1.53273
   C        0.92274         8.91342         0.75368
   C        0.69749         7.59675         1.24287
   C        0.83186         7.62815         2.68844
   O        0.72183         6.79421         3.55458
   N        1.13610         8.98401         2.96823
   C        1.40937         9.42021         4.31528
   C        2.90783         9.56163         4.57212
   C        1.19701         9.74826         1.83140
   C        1.48406        11.14404         1.83894
   C        1.60147        11.87885         0.71523
   C        1.90393        13.29508         0.74707
   N        2.01614        13.90296         1.93458
   C        2.28666        15.19467         1.91987
   C        2.45836        15.91008         0.74592
   C        2.33444        15.19133        -0.45142
   N        2.05389        13.88947        -0.42936
   C        2.50936        15.82490        -1.74169
   C        2.41821        15.13541        -2.89085
   C        2.58876        15.70227        -4.19030
   O        2.85131        17.02790        -4.37059
   C        2.94643        17.18410        -5.69151
   N        2.77343        16.09871        -6.37384
   C        2.54302        15.13558        -5.44433
   H       -0.56928        -1.36959         2.13361
   H       -1.27875        -1.55717        -0.55631
   H        0.26955         3.05406         2.47320
   H       -0.76122         2.90714        -1.70321
   H        0.59710         6.16104        -2.51186
   H        0.63794         7.89147        -2.97184
   H       -1.81369         6.36422        -1.96882
   H       -1.51984         6.86015        -3.63873
   H       -1.77753         8.08567        -2.39159
   H        0.99577         8.64809         4.97038
   H        0.89183        10.36377         4.50868
   H        3.40281         8.60737         4.40930
   H        3.07805         9.87097         5.59963
   H        3.34861        10.29975         3.90583
   H        1.61705        11.63789         2.79098
   H        1.48350        11.44473        -0.26728
   H        2.36955        15.66948         2.89020
   H        2.67984        16.96496         0.75038
   H        2.72401        16.88442        -1.74327
   H        2.20410        14.07726        -2.85630
   H        3.15145        18.15771        -6.08990
   H        2.36321        14.11779        -5.72070
*
