# ORCA input file
# SCF done       -165.823804109913          0.000756790271
! CAM-B3LYP def2-SVP def2/J RIJCOSX Grid4 TightSCF
%maxcore 5000
%tddft
    Mode sTDDFT
    Ethresh 5.0
    maxcore 5000
end

%pal
  nprocs 6
  end
* xyz 0 1
   C        2.54596        -1.85504        -0.82564
   O        2.08613        -2.82175        -0.27481
   C        3.70584        -1.05443        -0.36670
   C        4.01212        -0.06021        -1.31137
   C        5.08161         0.79297        -1.08620
   C        5.82050         0.64100         0.08066
   C        5.50447        -0.34781         1.01647
   C        4.43923        -1.20958         0.79139
  Br        6.52393        -0.52778         2.59589
  Br        7.27859         1.80367         0.38710
   C        3.06100        -0.14429        -2.41554
   C        2.99156         0.72363        -3.47108
   C        3.87694         1.80770        -3.66270
   N        4.56771         2.69844        -3.87509
   C        2.02949         0.68397        -4.50462
   N        1.28076         0.72857        -5.37304
   C        2.16988        -1.26192        -2.14325
   C        1.25180        -1.76868        -3.00789
   C        0.28577        -2.76978        -2.73397
   S       -0.49941        -3.63171        -4.06992
   C       -1.42731        -4.44055        -2.82454
   N       -1.12163        -4.02103        -1.62011
   N       -0.19681        -3.12225        -1.57823
   C       -2.40683        -5.42130        -3.13388
   C       -3.13182        -6.01992        -2.15982
   C       -4.15244        -7.00099        -2.28427
   S       -4.68603        -7.73270        -0.79959
   C       -5.81150        -8.76201        -1.62814
   C       -5.74786        -8.55668        -2.99907
   C       -4.83913        -7.54196        -3.36897
   C       -4.69698        -7.07739        -4.78260
   S       -5.03657        -5.26247        -4.91294
   C       -5.60974        -7.82296        -5.75285
   C       -5.70354        -9.29020        -5.36758
   C       -6.44532        -9.41403        -4.03223
   O       -6.57240       -10.75854        -3.64064
   C       -6.62364        -9.62042        -0.82178
   C       -7.81528       -10.14158        -1.17363
   C       -8.61343       -11.01525        -0.35866
   C       -9.92051       -11.35352        -0.75266
   N      -10.68663       -12.16934        -0.07067
   C      -10.16658       -12.73449         1.02008
   N       -8.94641       -12.47311         1.49965
   C       -8.19737       -11.62301         0.83712
   C      -11.02932       -13.64062         1.74066
   C      -10.68931       -14.56928         2.65884
   C      -11.73918       -15.14383         3.55557
   O      -12.93361       -15.08798         3.40668
   C      -10.98789       -15.73503         4.68377
   C       -9.60550       -15.65280         4.42846
   C       -9.39973       -15.07692         3.10242
   C       -8.27509       -15.21708         2.34395
   C       -8.20161       -14.91004         0.96655
   N       -8.08509       -14.76671        -0.16550
   C       -7.07468       -15.78770         2.82061
   N       -6.07559       -16.22924         3.17047
   C       -8.70272       -16.11862         5.37033
   C       -9.19441       -16.66955         6.54761
   C      -10.56877       -16.76351         6.78596
   C      -11.47756       -16.29008         5.84892
  Br      -11.20843       -17.53221         8.38829
  Br       -7.96545       -17.29718         7.83738
   H        5.35930         1.56394        -1.78638
   H        4.18571        -1.98039         1.50260
   H        1.22743        -1.39526        -4.02354
   H       -2.52936        -5.64063        -4.18040
   H       -2.89438        -5.73570        -1.14219
   H       -3.65628        -7.17304        -5.10411
   H       -6.28148        -5.32819        -4.44696
   H       -5.22494        -7.70893        -6.76643
   H       -6.61151        -7.38715        -5.72738
   H       -4.70274        -9.72006        -5.26852
   H       -6.24436        -9.85493        -6.12726
   H       -7.47774        -9.06290        -4.16823
   H       -5.69591       -11.14453        -3.53198
   H       -6.23775        -9.78811         0.17537
   H       -8.23917        -9.91235        -2.13885
   H      -10.35471       -10.93392        -1.65185
   H       -7.22022       -11.43789         1.26401
   H      -12.08769       -13.50505         1.54963
   H       -7.63687       -16.05678         5.21966
   H      -12.54025       -16.35417         6.02459
*
