# ORCA input file
# SCF done       -228.289960306823          0.000754185251
! CAM-B3LYP def2-SVP def2/J RIJCOSX Grid4 TightSCF
%maxcore 5000
%tddft
    Mode sTDDFT
    Ethresh 5.0
    maxcore 5000
end

%pal
  nprocs 6
  end
* xyz 0 1
   C       -2.27447        -6.21737         8.98890
   O       -2.96395        -6.85146         8.22387
   C       -2.48907        -6.02622        10.43142
   C       -1.45617        -5.23662        10.97320
   C       -1.45983        -4.93929        12.32716
   C       -2.49431        -5.42962        13.11551
   C       -3.52032        -6.20742        12.56653
   C       -3.51983        -6.51176        11.21243
  Br       -4.91469        -6.85204        13.66090
  Br       -2.49688        -5.03212        14.95935
   C       -0.53344        -4.85867         9.91019
   C        0.50092        -3.97520        10.01035
   C        0.87401        -3.33091        11.21245
   N        1.21615        -2.78918        12.16302
   C        1.30372        -3.55718         8.92348
   N        1.97553        -3.16131         8.08304
   C       -0.98543        -5.51676         8.68885
   C       -0.31990        -5.62724         7.52263
   C       -0.87530        -6.24890         6.33876
   C       -2.14182        -5.96244         5.81885
   C       -3.09526        -4.91239         6.26885
   O       -2.99553        -4.11216         7.14565
   O       -4.17121        -4.97193         5.43454
   C       -4.01355        -5.94343         4.47559
   O       -4.84323        -6.12863         3.64249
   C       -2.69262        -6.59484         4.70534
   C       -2.00209        -7.59524         3.97904
   C       -0.69643        -7.81820         4.46296
   C       -0.16868        -7.18322         5.58204
   C        1.19616        -7.71934         5.81024
   O        1.97105        -7.46291         6.67763
   O        1.44074        -8.62049         4.81205
   C        0.35685        -8.74476         3.96762
   O        0.36041        -9.48517         3.03725
   C       -2.46727        -8.35416         2.85249
   C       -3.74838        -8.56023         2.48609
   C       -4.07713        -9.36198         1.34918
   O       -5.39654        -9.54704         1.04535
   C       -5.39434       -10.31756        -0.05841
   C       -4.02810       -10.58263        -0.39009
   N       -3.25208        -9.95246         0.53712
   C       -3.67139       -11.35569        -1.48559
   C       -4.74092       -11.83995        -2.21720
   C       -6.09541       -11.55585        -1.86873
   C       -6.47089       -10.79333        -0.78078
   O       -6.88259       -12.16596        -2.78094
   C       -6.01207       -12.78331        -3.62099
   N       -4.76436       -12.62892        -3.33963
   C       -6.54020       -13.50032        -4.77438
   C       -6.21492       -14.82837        -5.06664
   C       -5.42325       -15.68932        -4.15537
   O       -5.06153       -15.45611        -3.04754
   S       -5.15648       -17.27575        -4.96394
   C       -6.18608       -16.85918        -6.35346
   O       -6.41125       -17.63036        -7.24377
   C       -6.68467       -15.47130        -6.21054
   C       -7.53312       -14.84265        -7.14634
   C       -7.89202       -13.52832        -6.81391
   C       -7.40539       -12.88720        -5.67785
   C       -7.95528       -11.50426        -5.66749
   O       -7.73692       -10.59523        -4.93546
   O       -8.81093       -11.41614        -6.73791
   C       -8.83812       -12.57859        -7.46524
   O       -9.54093       -12.71787        -8.41526
   C       -7.95436       -15.53629        -8.34276
   C       -8.06512       -14.97490        -9.55697
   C       -8.41141       -15.71868       -10.73584
   C       -7.99620       -16.94912       -11.10213
   C       -8.72176       -17.67071       -12.19694
   O       -9.50805       -17.19269       -12.97424
   C       -8.30226       -19.07948       -12.06405
   C       -7.29819       -19.18308       -11.08222
   C       -6.97534       -17.85054       -10.57955
   C       -5.81518       -17.51629        -9.94506
   C       -5.42790       -16.20678        -9.59239
   N       -5.03834       -15.17571        -9.27325
   C       -4.81159       -18.45204        -9.60034
   N       -3.96178       -19.16555        -9.31361
   C       -6.78361       -20.42590       -10.75096
   C       -7.26623       -21.54481       -11.41904
   C       -8.24777       -21.43106       -12.40982
   C       -8.77685       -20.18910       -12.73474
  Br       -8.87394       -22.96558       -13.31425
  Br       -6.57241       -23.24059       -10.96355
   H       -0.68488        -4.34606        12.78537
   H       -4.30442        -7.11124        10.77725
   H        0.70714        -5.29603         7.43697
   H       -1.69917        -8.85635         2.27873
   H       -4.59290        -8.14762         3.01446
   H       -2.64799       -11.56359        -1.74117
   H       -7.49534       -10.58288        -0.52882
   H       -8.10816       -16.60199        -8.23857
   H       -7.93050       -13.91159        -9.69246
   H       -9.12395       -15.24396       -11.40459
   H       -6.03573       -20.54721        -9.98393
   H       -9.54043       -20.09165       -13.49086
*
