# ORCA input file
# SCF done       -198.245685731338          0.000185727749
! CAM-B3LYP def2-SVP def2/J RIJCOSX Grid4 TightSCF
%maxcore 5000
%tddft
    Mode sTDDFT
    Ethresh 5.0
    maxcore 5000
end

%pal
  nprocs 6
  end
* xyz 0 1
   C        3.32514         3.26285        -1.70283
   C        2.76172         4.24691        -2.45614
   S        3.51511         4.35528        -4.00349
   C        4.62468         3.05705        -3.62843
  Cl        5.77398         2.52382        -4.74772
   C        4.39295         2.58176        -2.37355
   C        4.96077         1.55883        -1.49396
   O        6.00611         0.96757        -1.60913
   C        4.04552         1.54718        -0.29809
   C        3.13746         2.68189        -0.38950
   C        2.23592         3.12032         0.54256
   C        1.39790         4.22783         0.29146
   N        0.71157         5.12802         0.10647
   C        2.04829         2.56052         1.82168
   N        1.85673         2.14179         2.87331
   C        4.10268         0.62444         0.69309
   C        4.80390        -0.60999         0.56402
   S        5.53234        -1.40414         1.94352
   C        4.94853        -1.40349        -0.54868
   C        4.49311        -1.39798        -1.95549
   O        3.83023        -0.58250        -2.55057
   N        4.94536        -2.59542        -2.47476
   C        4.81604        -2.95547        -3.87026
   C        6.05219        -2.50793        -4.64241
   C        5.59531        -3.41311        -1.55025
   O        5.92187        -4.55208        -1.75140
   C        5.64555        -2.60323        -0.31676
   C        6.07724        -2.76247         0.98146
   C        6.95317        -3.78860         1.43612
   N        7.00132        -4.34018         2.68775
   C        6.09345        -4.08552         3.77913
   C        4.70103        -4.64481         3.50381
   C        7.98832        -5.35628         2.76928
   O        8.16953        -6.02214         3.76126
   C        8.61341        -5.33850         1.46358
   C        7.94171        -4.38162         0.66426
   C        8.61734        -4.31852        -0.61528
   O        8.47675        -3.60028        -1.57867
   N        9.61371        -5.31872        -0.53036
   C       10.54464        -5.47305        -1.62424
   C       11.94845        -4.99445        -1.26729
   C        9.63345        -5.91340         0.71015
   C       10.50667        -6.91644         1.21658
   C       11.25581        -7.79957         0.51288
   C       12.11777        -8.75938         1.10747
   S       12.85414        -9.97450         0.08672
   C       12.54928        -8.94019         2.40760
   C       12.37207        -8.29538         3.72067
   O       11.73832        -7.32272         4.03905
   N       13.14506        -9.05232         4.59826
   C       13.21046        -8.77468         6.01815
   C       12.01692        -9.37459         6.75237
   C       13.81171       -10.10184         3.99683
   O       14.52302       -10.89435         4.56910
   C       13.46262       -10.00442         2.56710
   C       13.76409       -10.68173         1.40445
   C       14.57827       -11.81731         1.15544
   C       15.67278       -12.26847         1.81759
   C       16.08898       -13.69629         1.58977
   O       15.68489       -14.42309         0.71604
   C       17.02697       -13.97723         2.67813
   C       17.70894       -15.05463         3.16183
   S       18.65687       -14.60068         4.55772
   C       18.13084       -12.95951         4.46444
   C       17.27257       -12.77839         3.42655
   C       16.53841       -11.68295         2.82452
   C       16.80216       -10.35951         3.05008
   C       17.72534        -9.94677         4.03373
   N       18.46505        -9.58758         4.83313
   C       16.23486        -9.29612         2.32732
   N       15.80680        -8.40082         1.74925
  Cl       17.70929       -16.64167         2.57204
   H        1.95748         4.91327        -2.21447
   H        3.57197         0.78217         1.62320
   H        3.91711        -2.46890        -4.25591
   H        4.70435        -4.04119        -3.92062
   H        6.15233        -1.42613        -4.59184
   H        5.97054        -2.80765        -5.68341
   H        6.94130        -2.96023        -4.20883
   H        6.04527        -3.00987         3.97349
   H        6.52997        -4.58456         4.64887
   H        4.26251        -4.18226         2.62219
   H        4.05415        -4.45285         4.35476
   H        4.75526        -5.71847         3.34136
   H       10.14116        -4.85204        -2.43019
   H       10.55326        -6.50996        -1.96925
   H       11.91987        -3.94660        -0.97892
   H       12.59857        -5.09761        -2.13158
   H       12.36797        -5.56823        -0.44474
   H       10.51355        -6.96640         2.29898
   H       11.20888        -7.84330        -0.56491
   H       13.22241        -7.68900         6.14065
   H       14.14634        -9.20074         6.38692
   H       11.09159        -8.94703         6.37359
   H       12.09356        -9.15712         7.81369
   H       11.99258       -10.45367         6.61699
   H       14.24869       -12.45634         0.34002
   H       18.47949       -12.25107         5.18921
*
