# ORCA input file
# SCF done       -187.188841645275          0.000642550837
! CAM-B3LYP def2-SVP def2/J RIJCOSX Grid4 TightSCF
%maxcore 5000
%tddft
    Mode sTDDFT
    Ethresh 5.0
    maxcore 5000
end

%pal
  nprocs 6
  end
* xyz 0 1
   C        1.94641         2.44126         3.00833
   C        1.52400         3.55113         3.67215
   S        2.23954         3.65075         5.23928
   C        3.13223         2.16686         4.99723
  Cl        4.15272         1.54504         6.19776
   C        2.86586         1.64660         3.76619
   C        3.28636         0.48012         2.98182
   O        4.10352        -0.35809         3.28431
   C        2.55090         0.61038         1.68562
   C        1.72518         1.80923         1.72361
   C        0.84510         2.25795         0.77547
   C        0.10046         3.44087         0.96990
   N       -0.51037         4.40137         1.11259
   C        0.55427         1.62154        -0.44810
   N        0.25882         1.14934        -1.45192
   C        2.74960        -0.17701         0.59269
   C        3.44729        -1.41483         0.52529
   C        4.06976        -1.89010        -0.60768
   C        4.66675        -3.15806        -0.32088
   C        4.31107        -3.46116         1.07369
   C        3.59074        -2.41993         1.56912
   C        4.62033        -4.63060         1.77755
   N        4.85552        -5.58744         2.36830
   C        5.41599        -3.93654        -1.16766
   C        6.01636        -5.20005        -0.89202
   C        6.68918        -5.64303        -2.00341
   C        6.52522        -4.63468        -3.04839
   C        5.76536        -3.61917        -2.56971
   C        5.40026        -2.48240        -3.29850
   N        5.12738        -1.56334        -3.93160
   C        7.42053        -6.87280        -2.16302
   C        8.32553        -7.03530        -3.22602
   C        9.00035        -8.22194        -3.36281
   C        8.78808        -9.28213        -2.45995
   C        7.90001        -9.12881        -1.40020
   C        7.23194        -7.93279        -1.25834
   C        9.60296       -10.40266        -2.86798
   C       10.32739       -10.03456        -4.01782
   C       10.00476        -8.62097        -4.40352
   C       11.17723       -10.92578        -4.62432
   C       11.31521       -12.22187        -4.10183
   C       10.59159       -12.57219        -2.95149
   C        9.74453       -11.67787        -2.33206
   C       12.19525       -13.13733        -4.78492
   C       12.35214       -14.45254        -4.54379
   C       13.25085       -15.24164        -5.32602
   O       13.34372       -16.58529        -5.07219
   C       14.24753       -17.04374        -5.96237
   C       14.68149       -15.92693        -6.74193
   N       14.01247       -14.82365        -6.29037
   C       15.61876       -16.05476        -7.75069
   C       16.09118       -17.34525        -7.93871
   C       15.63597       -18.44634        -7.15278
   C       14.70386       -18.33400        -6.13873
   O       16.27861       -19.54757        -7.59047
   C       17.09914       -19.10251        -8.58582
   N       17.01274       -17.82496        -8.82008
   C       17.87730       -20.05458        -9.30498
   C       18.83990       -19.79784       -10.21951
   C       19.25216       -20.88491       -11.17208
   O       19.02747       -22.06348       -11.05471
   C       19.91324       -20.16759       -12.26630
   C       20.44142       -20.47234       -13.48646
   S       21.06771       -19.03580       -14.25784
   C       20.61897       -18.04147       -12.91963
   C       20.01763       -18.77281       -11.94437
   C       19.48293       -18.55237       -10.61339
   C       19.74245       -17.45933        -9.83830
   C       20.41867       -16.33641       -10.36103
   N       20.95551       -15.41449       -10.78260
   C       19.49364       -17.37346        -8.45202
   N       19.43061       -17.28078        -7.31001
  Cl       20.52904       -21.98749       -14.23710
   H        0.84760         4.31912         3.35332
   H        2.36620         0.17183        -0.35952
   H        4.13826        -1.37775        -1.54783
   H        3.16238        -2.36116         2.55015
   H        5.95558        -5.69200         0.05771
   H        6.91743        -4.70150        -4.04596
   H        8.50637        -6.22749        -3.91838
   H        7.73287        -9.93430        -0.70160
   H        6.53084        -7.80983        -0.44805
   H        9.59224        -8.56010        -5.41321
   H       10.89092        -7.98240        -4.37384
   H       11.73404       -10.64594        -5.50682
   H       10.70571       -13.56135        -2.53713
   H        9.19764       -11.96474        -1.44666
   H       12.77938       -12.72188        -5.59573
   H       11.81335       -14.98575        -3.77590
   H       15.96042       -15.22100        -8.33708
   H       14.37029       -19.16801        -5.54629
   H       17.59802       -21.09119        -9.15753
   H       20.82277       -16.98964       -12.95201
*
