# ORCA input file
# SCF done       -185.495367600224          0.000353691809
! CAM-B3LYP def2-SVP def2/J RIJCOSX Grid4 TightSCF
%maxcore 5000
%tddft
    Mode sTDDFT
    Ethresh 5.0
    maxcore 5000
end

%pal
  nprocs 6
  end
* xyz 0 1
   C        2.27263        -1.11183        -5.41605
   C        1.87545        -0.72337        -6.65716
   S        2.88746        -1.40461        -7.87892
   C        3.86868        -2.23614        -6.69774
  Cl        5.18020        -3.20256        -7.15741
   C        3.41397        -1.97833        -5.43693
   C        3.77062        -2.35066        -4.07243
   O        4.66750        -3.09176        -3.71255
   C        2.81773        -1.62492        -3.20439
   C        1.86044        -0.91050        -4.03981
   C        0.74871        -0.21337        -3.65510
   C       -0.07485         0.42538        -4.60804
   N       -0.74778         0.95263        -5.37235
   C        0.27051        -0.07559        -2.33504
   N       -0.18598         0.05226        -1.29026
   C        2.88499        -1.55676        -1.84129
   C        3.77296        -2.20141        -0.95440
   S        4.95449        -3.41551        -1.34681
   C        5.41260        -3.58218         0.31661
   C        4.71299        -2.69755         1.14160
   C        3.78278        -1.92768         0.42198
   C        2.97144        -0.94496         1.02083
   N        2.32660        -0.13044         1.50364
   C        5.01961        -2.46933         2.49766
   N        5.32975        -2.20963         3.56945
   C        6.35342        -4.53480         0.79769
   N        7.47784        -4.97541         0.15255
   C        7.96165        -4.58961        -1.15211
   C        7.46583        -5.53527        -2.24191
   C        8.20953        -5.88273         0.95099
   O        9.25953        -6.37772         0.60045
   C        7.42456        -6.01508         2.15852
   C        6.29411        -5.17763         2.03126
   C        5.43629        -5.39243         3.18184
   O        4.32800        -4.99219         3.45203
   N        6.16308        -6.29641         3.97973
   C        5.68446        -6.66840         5.28983
   C        6.36494        -5.85044         6.38422
   C        7.34133        -6.68106         3.38885
   C        8.24889        -7.59379         3.96795
   C        9.38839        -8.00541         3.33968
   C       10.31268        -8.92380         3.88633
   C       11.42834        -9.42120         3.24071
   C       12.10508       -10.33144         4.09954
   C       11.33182       -10.35343         5.35879
   C       10.27010        -9.52187         5.21820
   C       11.62421       -11.08128         6.51889
   N       11.83088       -11.65082         7.49443
   C       13.22892       -11.07540         3.82523
   C       13.86763       -12.02958         4.67484
   C       14.88770       -12.63817         3.98218
   C       14.96220       -12.02286         2.66259
   C       13.99024       -11.07882         2.56601
   C       13.78693       -10.25772         1.45052
   N       13.66209        -9.59951         0.51804
   C       15.75929       -13.64802         4.47441
   C       16.43468       -14.58056         3.75350
   C       17.62184       -15.27449         4.35010
   O       17.95148       -15.26282         5.51007
   C       18.28909       -15.89720         3.19988
   C       19.43642       -16.59476         2.96474
   S       19.55607       -17.02532         1.27428
   C       18.04896       -16.26798         0.90752
   C       17.49650       -15.71223         2.01826
   C       16.28008       -15.00779         2.37497
   C       15.14016       -14.97292         1.61568
   C       15.12257       -15.47947         0.29937
   N       15.11024       -15.87472        -0.77738
   C       13.88140       -14.54358         2.08294
   N       12.82226       -14.27595         2.43520
  Cl       20.63765       -17.03599         4.07369
   H        1.06372        -0.08447        -6.94349
   H        2.17518        -0.90723        -1.33932
   H        9.05345        -4.63783        -1.10316
   H        7.65676        -3.56186        -1.36237
   H        7.80313        -6.54753        -2.03374
   H        7.86699        -5.22358        -3.20152
   H        6.38033        -5.52796        -2.30420
   H        5.83162        -7.74056         5.44552
   H        4.61167        -6.45709         5.28918
   H        7.44150        -6.00823         6.38039
   H        5.97166        -6.13594         7.35572
   H        6.17013        -4.79246         6.22708
   H        8.00550        -7.97976         4.94682
   H        9.61646        -7.62545         2.35211
   H       11.73156        -9.17351         2.24225
   H        9.52678        -9.32690         5.96844
   H       13.55357       -12.27472         5.67032
   H       15.70731       -12.24184         1.91960
   H       15.95931       -13.63958         5.54125
   H       17.68369       -16.27870        -0.10033
*
