# ORCA input file
# SCF done       -202.896938929676          0.000483524949
! CAM-B3LYP def2-SVP def2/J RIJCOSX Grid4 TightSCF
%maxcore 5000
%tddft
    Mode sTDDFT
    Ethresh 5.0
    maxcore 5000
end

%pal
  nprocs 6
  end
* xyz 0 1
   C       -4.74515         0.20201         4.23022
   N       -4.49386         0.38299         2.90628
   C       -4.30274        -0.66257         1.93263
   C       -2.91389        -1.28580         2.04482
   C       -4.36101         1.75309         2.58926
   O       -4.13558         2.15918         1.46535
   C       -4.56316         2.42442         3.85033
   C       -4.80115         1.42070         4.84483
   C       -5.01172         2.09125         6.11243
   O       -5.25105         1.67990         7.22491
   N       -4.88786         3.46033         5.79746
   C       -4.99229         4.47220         6.82058
   C       -3.62113         4.96758         7.27367
   C       -4.61774         3.66644         4.46340
   C       -4.44713         4.95762         3.88899
   C       -4.20101         5.15068         2.57409
   C       -4.03015         6.46062         2.03584
   O       -3.84901         6.60255         0.68793
   C       -3.72102         7.92931         0.49250
   C       -3.82668         8.56228         1.76886
   N       -4.02337         7.58054         2.69834
   C       -3.73094         9.93641         1.91921
   C       -3.53355        10.63520         0.73877
   C       -3.44325         9.97775        -0.52454
   C       -3.52924         8.61066        -0.69386
   O       -3.26825        10.93171        -1.46481
   C       -3.25180        12.11194        -0.76293
   N       -3.40245        11.97445         0.51720
   C       -3.08214        13.36783        -1.41887
   N       -3.13694        13.57204        -2.77652
   C       -3.45821        12.60807        -3.80192
   C       -4.95143        12.29412        -3.83498
   C       -2.95067        14.92983        -3.09935
   O       -2.96844        15.35322        -4.23889
   C       -2.74431        15.57618        -1.82629
   C       -2.83251        14.58623        -0.80946
   C       -2.58928        15.23227         0.46879
   O       -2.54240        14.83090         1.60518
   N       -2.38664        16.59109         0.12341
   C       -2.06820        17.57227         1.13198
   C       -0.57337        17.88047         1.17073
   C       -2.47188        16.80368        -1.22882
   C       -2.32199        18.08074        -1.83379
   C       -2.43486        18.28912        -3.16601
   C       -2.29877        19.59624        -3.71940
   O       -2.49280        19.77642        -5.05952
   C       -2.31686        21.09724        -5.26352
   C       -2.00443        21.68483        -3.99870
   N       -2.01035        20.68665        -3.06783
   C       -1.76299        23.04197        -3.85625
   C       -1.85974        23.77067        -5.03018
   C       -2.18349        23.16232        -6.28040
   C       -2.41780        21.81054        -6.44168
   O       -2.21352        24.13863        -7.20750
   C       -1.91882        25.27938        -6.52596
   N       -1.70162        25.10954        -5.25400
   C       -1.89656        26.50773        -7.25364
   N       -1.52602        27.71581        -6.72225
   C       -1.13298        27.98302        -5.35997
   C       -2.34495        28.14217        -4.44768
   C       -1.61518        28.74691        -7.67665
   O       -1.32717        29.90326        -7.43833
   C       -2.07670        28.08751        -8.87648
   C       -2.23301        26.70165        -8.58129
   C       -2.70905        26.03872        -9.77719
   O       -2.99260        24.89006       -10.02917
   N       -2.81438        27.08599       -10.72340
   C       -3.21885        26.81486       -12.08113
   C       -2.02502        26.76704       -13.03191
   C       -2.44102        28.29735       -10.19813
   C       -2.47426        29.52507       -10.94222
   C       -2.08630        30.69361       -10.42743
   H       -4.87407        -0.78335         4.63868
   H       -4.42421        -0.19851         0.95031
   H       -5.07537        -1.42468         2.06899
   H       -2.15132        -0.52714         1.88755
   H       -2.79459        -2.06097         1.29331
   H       -2.76897        -1.72661         3.02863
   H       -5.50587         3.99673         7.66117
   H       -5.60383         5.30136         6.45488
   H       -3.03904         4.13800         7.66751
   H       -3.74018         5.71106         8.05673
   H       -3.07483         5.41470         6.44641
   H       -4.52001         5.82567         4.52734
   H       -4.12581         4.32660         1.87845
   H       -3.80241        10.42753         2.87265
   H       -3.45595         8.12297        -1.65027
   H       -2.87663        11.69767        -3.64524
   H       -3.15866        13.07065        -4.74677
   H       -5.27473        11.84724        -2.89793
   H       -5.16154        11.59792        -4.64202
   H       -5.52083        13.20538        -4.00238
   H       -2.37674        17.13350         2.08507
   H       -2.64817        18.48186         0.95511
   H       -0.01395        16.97265         1.38247
   H       -0.36804        18.60554         1.95325
   H       -0.23376        18.28525         0.22011
   H       -2.12130        18.93366        -1.20209
   H       -2.64009        17.48377        -3.85753
   H       -1.52543        23.49350        -2.90982
   H       -2.66012        21.36492        -7.39026
   H       -0.56070        28.91439        -5.38694
   H       -0.50590        27.16363        -5.00564
   H       -2.99535        28.92988        -4.82025
   H       -2.01528        28.40429        -3.44678
   H       -2.89903        27.20896        -4.39950
   H       -3.94643        27.56405       -12.40607
   H       -3.70778        25.83666       -12.05856
   H       -1.49375        27.71628       -13.04071
   H       -2.36557        26.54607       -14.03973
   H       -1.33451        25.98767       -12.71956
   H       -2.83990        29.47043       -11.95833
   H       -1.72091        30.77152        -9.41692
   H       -2.13043        31.59916       -11.00779
*
