# ORCA input file
# SCF done       -160.592144791018          0.000553684605
! CAM-B3LYP def2-SVP def2/J RIJCOSX Grid4 TightSCF
%maxcore 5000
%tddft
    Mode sTDDFT
    Ethresh 5.0
    maxcore 5000
end

%pal
  nprocs 6
  end
* xyz 0 1
   C       -1.09937        -1.29339         1.83677
   N       -0.40110        -0.87199         0.74969
   C        0.59617        -1.63251         0.03961
   C        1.90758        -1.70295         0.81768
   C       -0.71629         0.46978         0.42023
   O       -0.21944         1.06631        -0.51366
   C       -1.69502         0.84170         1.41055
   C       -1.90664        -0.27850         2.27158
   C       -2.88624         0.11605         3.26053
   O       -3.39021        -0.47158         4.19105
   N       -3.19300         1.46015         2.93779
   C       -4.21074         2.14871         3.69322
   C       -5.52571         2.24995         2.92354
   C       -2.49034         1.89615         1.83372
   C       -2.47728         3.16079         1.18391
   C       -3.09546         4.31914         1.51722
   C       -2.96192         5.52501         0.77428
   S       -3.74328         6.97260         1.36643
   C       -3.14680         7.91437         0.03860
   C       -2.38566         7.11370        -0.81676
   C       -2.28336         5.77827        -0.39831
   C       -1.78587         7.62080        -1.98239
   N       -1.30014         8.04393        -2.93132
   C       -3.40089         9.29812        -0.11540
   C       -4.11604        10.04943         0.75517
   C       -4.35074        11.44041         0.61417
   S       -3.74546        12.36421        -0.73602
   C       -4.43222        13.83811        -0.12274
   C       -5.10090        13.59712         1.08021
   C       -5.04903        12.25131         1.48179
   C       -5.77383        14.55917         1.85113
   N       -6.33785        15.29943         2.52306
   C       -4.24674        15.03331        -0.86240
   C       -4.70189        16.25902        -0.50381
   C       -4.50843        17.44463        -1.26169
   S       -5.13959        18.95493        -0.66416
   C       -4.54763        19.82850        -2.04071
   C       -3.88729        18.95670        -2.91784
   C       -3.87038        17.62690        -2.47258
   C       -3.29360        19.32546        -4.13578
   N       -2.79688        19.57605        -5.14041
   C       -4.78775        21.22002        -2.12488
   C       -4.37996        22.02574        -3.14172
   C       -4.66951        23.41136        -3.17706
   N       -4.28380        24.23977        -4.20709
   C       -3.58708        23.85103        -5.40994
   C       -4.51677        23.17912        -6.41710
   C       -4.70069        25.56597        -4.00375
   O       -4.46710        26.46794        -4.78369
   C       -5.39159        25.53315        -2.73328
   C       -5.35232        24.19547        -2.25151
   C       -6.03914        24.16194        -0.98389
   O       -6.26948        23.26003        -0.19944
   N       -6.45953        25.48930        -0.78070
   C       -7.14876        25.87124         0.42741
   C       -6.21328        26.55083         1.42478
   C       -6.07788        26.31275        -1.81314
   C       -6.39388        27.71104        -1.86604
   C       -6.00196        28.50571        -2.86451
   H       -0.97715        -2.28972         2.22015
   H        0.75487        -1.11977        -0.91295
   H        0.21220        -2.63877        -0.15286
   H        2.29377        -0.70132         0.98934
   H        2.64312        -2.26749         0.25176
   H        1.75848        -2.18821         1.77979
   H       -3.84681         3.13285         3.99996
   H       -4.36432         1.54417         4.59284
   H       -5.39105         2.77064         1.97808
   H       -6.26126         2.78475         3.51843
   H       -5.90649         1.25308         2.71538
   H       -1.84093         3.15057         0.30844
   H       -3.72289         4.39375         2.39156
   H       -1.73149         5.03484        -0.94429
   H       -2.96960         9.75934        -0.99615
   H       -4.54402         9.58547         1.63539
   H       -5.51056        11.88998         2.38409
   H       -3.68888        14.91886        -1.78177
   H       -5.25407        16.37587         0.41742
   H       -3.40488        16.83501        -3.03162
   H       -5.34755        21.65108        -1.30449
   H       -3.81560        21.61271        -3.96328
   H       -2.75303        23.19125        -5.15589
   H       -3.18954        24.77559        -5.83809
   H       -4.94518        22.26792        -6.00595
   H       -3.96006        22.92503        -7.31441
   H       -5.32529        23.85481        -6.68583
   H       -7.53283        24.94294         0.86019
   H       -7.99385        26.52015         0.18060
   H       -5.40449        25.87545         1.69284
   H       -6.76180        26.81117         2.32584
   H       -5.78209        27.45563         1.00188
   H       -6.98150        28.10972        -1.05050
   H       -5.41667        28.13059        -3.68736
   H       -6.26058        29.55046        -2.87854
*
