# ORCA input file
# SCF done       -136.483082765627          0.000595938383
! CAM-B3LYP def2-SVP def2/J RIJCOSX Grid4 TightSCF
%maxcore 5000
%tddft
    Mode sTDDFT
    Ethresh 5.0
    maxcore 5000
end

%pal
  nprocs 6
  end
* xyz 0 1
   C        0.35070        -0.65259         1.89982
   O       -0.24509         0.48024         2.30175
   C       -0.08627         1.28741         1.22312
   N        0.54944         0.67375         0.26802
   N        0.82562        -0.56295         0.70492
   C       -0.58693         2.64112         1.20318
   C       -0.34333         3.44320         0.09456
   C       -0.84965         4.73245         0.03791
   N       -0.48409         5.47790        -1.14695
   O        0.68313         5.44796        -1.46140
   O       -1.35164         6.05912        -1.76215
   C       -1.57507         5.28551         1.10864
   C       -1.74617         4.46864         2.23925
   C       -1.29357         3.17180         2.28585
   C       -2.07491         6.64193         1.22074
   C       -2.67971         7.39166         0.27770
   C       -3.11567         8.72390         0.54647
   N       -3.66041         9.54366        -0.41054
   C       -3.84247         9.24358        -1.81182
   C       -2.52933         9.28820        -2.58831
   C       -3.98544        10.80968         0.10618
   O       -4.47794        11.70122        -0.55728
   C       -3.61605        10.73433         1.50212
   C       -3.08563         9.43701         1.73970
   C       -2.73843         9.35144         3.13835
   O       -2.27072         8.44968         3.80977
   N       -3.07927        10.60916         3.66058
   C       -2.82734        10.93396         5.04325
   C       -1.54708        11.74874         5.21361
   C       -3.59409        11.44684         2.69489
   C       -4.00150        12.78616         2.95019
   C       -4.49769        13.58412         1.97811
   C       -4.90773        14.95692         2.12974
   C       -5.48847        15.60389         1.03567
   C       -5.87856        16.92904         1.11179
   N       -6.41765        17.52188        -0.08798
   O       -6.94594        16.77772        -0.88409
   O       -6.30340        18.72111        -0.23421
   C       -5.71651        17.68090         2.28974
   C       -5.13998        17.01773         3.38055
   C       -4.74313        15.70300         3.30691
   C       -6.16579        19.05211         2.41652
   C       -5.57678        19.96012         3.20925
   C       -6.04707        21.30675         3.32976
   O       -7.14742        21.76354         2.67834
   C       -7.20416        23.04176         3.07458
   N       -6.25056        23.35223         3.88614
   N       -5.50894        22.24844         4.05338
   H        0.39090        -1.50024         2.55119
   H        0.24051         3.05112        -0.72392
   H       -2.26545         4.88561         3.08871
   H       -1.46559         2.56419         3.16092
   H       -1.99273         7.05200         2.22140
   H       -2.85946         7.00735        -0.71329
   H       -4.52133        10.01255        -2.19172
   H       -4.32005         8.26603        -1.91920
   H       -2.03770        10.24613        -2.43583
   H       -2.73244         9.16772        -3.64848
   H       -1.85901         8.49202        -2.27569
   H       -2.72236         9.97749         5.56326
   H       -3.68860        11.46551         5.45802
   H       -0.69638        11.18183         4.84391
   H       -1.38713        11.96829         6.26566
   H       -1.60167        12.68540         4.66292
   H       -3.89789        13.14529         3.96349
   H       -4.60500        13.17647         0.98158
   H       -5.62871        15.07259         0.10526
   H       -5.02743        17.55599         4.30877
   H       -4.29578        15.24609         4.17554
   H       -7.01327        19.36030         1.81962
   H       -4.68569        19.75249         3.78067
   H       -7.98396        23.68175         2.71804
*
