# ORCA input file
# SCF done       -183.798387554333          0.000323053072
! CAM-B3LYP def2-SVP def2/J RIJCOSX Grid4 TightSCF
%maxcore 5000
%tddft
    Mode sTDDFT
    Ethresh 5.0
    maxcore 5000
end

%pal
  nprocs 6
  end
* xyz 0 1
   C        3.86467         2.29669        -3.45043
   C        2.71484         3.26121        -3.60102
   C        3.38695         4.66917        -3.52387
   C        4.92089         4.69536        -3.63838
   C        5.46614         5.35546        -4.65947
   O        5.82724         4.24500        -2.69440
   C        5.75870         2.98623        -1.98689
   C        4.29517         2.61856        -2.00320
   C        3.44871         1.70510        -1.17817
   C        2.16180         1.87931        -1.46534
   C        1.68642         2.92945        -2.46178
   C        0.35261         2.48896        -3.06746
   C        6.30935         3.20930        -0.57963
   C        7.74911         3.72134        -0.55744
   C        8.77093         2.68399        -1.03212
   C        8.76528         1.46781        -0.18330
   O        8.94452         0.26083        -0.77126
   C        8.58890         1.28061         1.15987
   C        8.34133         1.94847         2.44106
   O        8.20279         3.11157         2.72080
   N        8.28707         0.89914         3.35477
   C        8.47127        -0.37691         2.81849
   O        8.45450        -1.40016         3.45488
   C        8.66637        -0.12470         1.39458
   C        8.88870        -0.72261         0.17537
   C        9.04246        -2.09736        -0.15956
   C        9.28655        -2.55879        -1.40317
   C        9.46050        -3.95088        -1.68130
   C        9.78260        -4.47812        -2.87320
   C        9.97321        -3.68979        -4.12684
   C       10.06099        -5.95297        -3.05530
   N        9.98476        -6.77921        -1.87658
   C       10.90056        -6.77974        -0.89249
   C       11.94296        -5.90526        -0.78818
   C       12.92210        -5.99106         0.21005
   C       13.90516        -5.04780         0.38900
   C       15.02703        -5.11330         1.24360
   C       15.87059        -4.04586         1.14010
   C       15.43260        -3.06348         0.22668
   S       13.93082        -3.53498        -0.51344
   C       16.07072        -1.88330        -0.12821
   C       17.40407        -1.50447         0.09887
   C       17.75558        -0.34953        -0.54110
   C       16.71909         0.24570        -1.29439
   S       15.25995        -0.68433        -1.11336
   C       16.86248         1.43949        -1.99368
   C       15.96807         2.18796        -2.73830
   C       14.68376         1.96120        -3.22373
   C       13.84783         3.14898        -3.50216
   O       14.19366         4.31280        -3.48100
   C       12.49293         2.62643        -3.78419
   C       11.34920         3.30899        -4.06898
   C       10.15932         2.58471        -4.31587
   C       10.17997         1.16379        -4.22267
   C        8.98672         0.45503        -4.45739
   C        7.84942         1.13569        -4.79258
   C        7.81510         2.52960        -4.91145
   C        8.95995         3.23671        -4.66335
   F        6.71030         0.44496        -5.02160
   C       11.38731         0.48364        -3.92857
   C       12.53221         1.20440        -3.73633
   C       13.92313         0.79684        -3.51838
   C       14.42347        -0.46788        -3.79060
   C       15.79667        -0.70793        -3.97731
   N       16.90999        -0.91753        -4.16982
   C       13.62046        -1.59255        -4.01371
   N       13.00207        -2.55250        -4.16326
   H        4.64562         2.48847        -4.18495
   H        3.56706         1.25230        -3.54734
   H        2.21147         3.16169        -4.56531
   H        3.10073         5.19538        -2.60884
   H        3.02092         5.27828        -4.35083
   H        4.86986         5.85435        -5.39962
   H        6.53373         5.45003        -4.74719
   H        6.38088         2.25967        -2.52802
   H        3.86986         3.58611        -1.72258
   H        3.83051         0.98168        -0.47779
   H        1.38629         1.29463        -0.99440
   H        1.49720         3.84732        -1.88771
   H        0.48254         1.57332        -3.64061
   H       -0.04086         3.25872        -3.72779
   H       -0.38090         2.30403        -2.28564
   H        5.67547         3.94077        -0.07540
   H        6.23595         2.26755        -0.03282
   H        7.99512         4.01891         0.46239
   H        7.81530         4.59699        -1.20251
   H        9.76905         3.13264        -1.00203
   H        8.58005         2.38657        -2.06328
   H        8.12751         1.05222         4.34030
   H        8.95659        -2.77286         0.67993
   H        9.38506        -1.84821        -2.20939
   H        9.34747        -4.60485        -0.82664
   H       10.98316        -3.27422        -4.15475
   H        9.25987        -2.87365        -4.19070
   H        9.85219        -4.32220        -5.00330
   H       11.07031        -6.04121        -3.47960
   H        9.35976        -6.35734        -3.79176
   H        9.17978        -7.37501        -1.77953
   H       10.76554        -7.54648        -0.14030
   H       12.02929        -5.08960        -1.49014
   H       12.92879        -6.85335         0.86439
   H       15.19149        -5.95643         1.89157
   H       16.77957        -3.93181         1.70260
   H       18.08051        -2.10752         0.67736
   H       18.74156         0.07895        -0.51570
   H       17.83669         1.89477        -1.85686
   H       16.28739         3.21127        -2.92125
   H       11.34974         4.38744        -4.12009
   H        8.97371        -0.62138        -4.39382
   H        6.89656         3.01989        -5.19116
   H        8.95824         4.31348        -4.73613
   H       11.37656        -0.59311        -3.87233
*
