# ORCA input file
# SCF done       -175.348127534436          0.000973076175
! CAM-B3LYP def2-SVP def2/J RIJCOSX Grid4 TightSCF
%maxcore 5000
%tddft
    Mode sTDDFT
    Ethresh 5.0
    maxcore 5000
end

%pal
  nprocs 6
  end
* xyz 0 1
   C       -8.17405         6.26449         4.29087
   C       -8.92396         5.82780         5.35456
   C       -8.83332         6.35441         6.65772
   N       -8.79895         6.74233         7.73786
   C       -9.87757         4.79449         5.26943
   N      -10.66085         3.95515         5.24272
   C       -7.17083         7.32797         4.33051
   C       -6.60957         7.47732         3.03523
   C       -5.63302         8.39874         2.74407
   C       -5.18821         9.21886         3.78682
   C       -5.75248         9.06691         5.07515
   C       -6.74016         8.13093         5.36732
   S       -5.05834        10.18225         6.21092
   C       -4.03349        10.82920         4.95631
   C       -4.20091        10.24104         3.74830
  Br       -2.84116        12.21885         5.36240
   C       -7.24604         6.51411         2.13724
   O       -7.01571         6.35562         0.93567
   C       -8.21742         5.77090         2.93667
   C       -8.99951         4.78122         2.37349
   N       -8.84256         4.51384         1.07412
   C       -9.47485         3.62877         0.27695
   S      -10.74660         2.59022         0.83810
   C      -10.89653         1.95810        -0.77238
   N      -11.85768         0.96361        -0.99848
   O      -11.95977         0.52505        -2.12931
   O      -12.52051         0.60989        -0.03985
   C      -10.02819         2.51019        -1.67336
   C       -9.18285         3.48086        -1.09558
   C       -8.15543         4.22243        -1.74985
   C       -7.90446         4.19857        -3.08807
   C       -6.90023         4.89157        -3.78745
   S       -6.75165         4.49368        -5.48147
   C       -5.37101         5.52408        -5.72145
   C       -5.05853         6.19270        -4.50484
   C       -5.92476         5.85287        -3.42296
   C       -5.73999         6.50023        -2.18734
   C       -4.72170         7.40559        -2.04654
   F       -4.55076         8.02827        -0.86561
   C       -3.85300         7.70723        -3.10685
   F       -2.85902         8.59505        -2.92137
   C       -4.02019         7.11406        -4.33056
   C       -4.72139         5.63928        -6.93630
   C       -5.07509         4.93869        -8.08494
   C       -4.44744         5.04524        -9.30534
   C       -4.61942         4.17627       -10.42782
   C       -5.53672         3.14696       -10.64613
   C       -5.46881         2.43245       -11.82011
   C       -4.49512         2.71874       -12.78381
   C       -3.57300         3.72163       -12.58549
   C       -3.62594         4.46491       -11.40665
   C       -2.76635         5.50312       -10.91499
   C       -3.43565         6.02867        -9.71430
   C       -3.41914         7.31333        -9.34319
   C       -1.55476         5.84325       -11.46021
   C       -0.47982         6.52877       -10.87920
   C        0.74193         6.77983       -11.51918
   C        1.70951         7.32518       -10.71108
   C        1.28735         7.51917        -9.38766
   S       -0.37852         7.01873        -9.20458
   C        2.00965         8.02050        -8.31292
   C        3.35013         8.47392        -8.31109
   C        3.79338         8.89747        -7.10029
   C        2.82208         8.80594        -6.05399
   S        1.31607         8.15081        -6.71568
   C        2.96268         9.13886        -4.76065
   H       -5.22551         8.48417         1.74870
   H       -7.13673         8.05486         6.36594
   H       -3.65368        10.51286         2.86425
   H       -9.73285         4.21336         2.93020
   H       -8.11613         5.11944         0.63646
   H      -10.00832         2.20514        -2.70322
   H       -7.52684         4.82808        -1.12151
   H       -8.52078         3.56611        -3.71407
   H       -6.37571         6.33758        -1.33608
   H       -3.35092         7.36814        -5.13605
   H       -3.85888         6.28686        -6.97326
   H       -5.86955         4.20805        -7.99087
   H       -6.29365         2.92309        -9.90974
   H       -6.17603         1.63825       -12.00796
   H       -4.47172         2.14034       -13.69547
   H       -2.82836         3.93513       -13.33787
   H       -2.77136         8.02964        -9.81760
   H       -4.09577         7.69816        -8.60059
   H       -1.33527         5.43780       -12.44153
   H        0.89084         6.55047       -12.56013
   H        2.70237         7.57038       -11.04230
   H        3.94524         8.47339        -9.20725
   H        4.78075         9.27555        -6.90437
   H        3.89467         9.53128        -4.39411
   H        2.15770         9.02806        -4.05780
*
