# ORCA input file
# SCF done       -140.816471810882          0.000875796586
! CAM-B3LYP def2-SVP def2/J RIJCOSX Grid4 TightSCF
%maxcore 5000
%tddft
    Mode sTDDFT
    Ethresh 5.0
    maxcore 5000
end

%pal
  nprocs 6
  end
* xyz 0 1
   C        1.74002       -13.80956        -9.28830
   C        2.64624       -12.82298        -9.23995
   C        3.49082       -12.35205       -10.29919
   C        4.31133       -11.33540        -9.94993
   C        4.18747       -10.91880        -8.59691
   S        2.97297       -11.88061        -7.77633
   C        4.88225        -9.91916        -7.95607
   C        5.87976        -9.06425        -8.48200
   C        6.37154        -8.17428        -7.57832
   C        5.79683        -8.26806        -6.28563
   S        4.59655        -9.54490        -6.26576
   C        6.12180        -7.48530        -5.20302
   C        5.58070        -7.55652        -3.91485
   S        4.36321        -8.72480        -3.48223
   C        4.31637        -8.15074        -1.83292
   C        5.21692        -7.09649        -1.65299
   C        5.91055        -6.75809        -2.80989
   C        6.92011        -5.65345        -2.84930
   C        6.75629        -4.73099        -1.64413
   C        6.68573        -5.55187        -0.34671
   N        6.72233        -4.75991         0.86933
   C        5.40283        -6.38661        -0.35072
   C        3.45762        -8.73793        -0.88844
   C        2.61454        -9.76428        -1.20649
   C        1.74592       -10.42554        -0.31330
   C        0.88213       -11.48935        -0.70444
   N        0.10190       -12.17290         0.17652
   C        0.04335       -11.90749         1.43768
   C        0.81892       -10.84583         1.96272
   C        1.67966       -10.10343         1.07046
   N        2.28847        -9.18814         1.80159
   O        1.83861        -9.34745         3.05463
   N        0.95656       -10.33854         3.16880
   C        0.74494       -11.94249        -2.03689
   C       -0.06589       -12.99684        -2.37490
   C       -0.27136       -13.51727        -3.67643
   C       -1.11503       -14.58472        -3.72095
   C       -1.61121       -14.95905        -2.45238
   S       -0.98344       -13.89387        -1.19606
   C       -2.46009       -16.00534        -2.16256
   C       -3.08323       -16.91771        -3.04313
   C       -3.86058       -17.84682        -2.42589
   C       -3.91556       -17.73244        -1.01014
   S       -2.89598       -16.38396        -0.50771
   C       -4.59361       -18.59494        -0.19256
   C       -4.75483       -18.61681         1.21214
   S       -5.10097       -20.19124         1.92697
   C       -5.10887       -19.54886         3.50420
   C       -4.89249       -18.19613         3.51080
   C       -4.85339       -17.41042         4.67377
   N       -4.79725       -16.74039         5.60396
   C       -4.70975       -17.63767         2.20287
   N       -4.68412       -16.29082         2.01970
   H        1.57299       -14.35733       -10.19871
   H        1.15660       -14.08398        -8.42879
   H        3.44489       -12.79851       -11.27662
   H        5.00946       -10.86261       -10.61790
   H        6.20425        -9.12931        -9.50506
   H        7.13425        -7.44697        -7.79613
   H        6.88577        -6.73647        -5.36618
   H        6.81591        -5.07997        -3.77363
   H        7.92574        -6.08828        -2.84337
   H        5.83709        -4.14796        -1.74853
   H        7.59662        -4.03315        -1.60002
   H        7.55038        -6.22641        -0.31226
   H        5.95173        -4.09951         0.88431
   H        7.58589        -4.23211         0.92853
   H        4.54772        -5.72470        -0.17601
   H        5.43067        -7.09825         0.47508
   H        3.47629        -8.35516         0.12124
   H        2.62432       -10.10875        -2.23099
   H       -0.60147       -12.50898         2.06014
   H        1.28276       -11.45459        -2.83355
   H        0.21573       -13.08499        -4.53336
   H       -1.38101       -15.10873        -4.62219
   H       -2.94232       -16.85765        -4.10736
   H       -4.40962       -18.61661        -2.93925
   H       -5.02371       -19.45225        -0.69830
   H       -5.27102       -20.18428         4.35231
   H       -4.48528       -15.73137         2.83412
   H       -4.35890       -15.92444         1.13991
*
