# ORCA input file
# SCF done       -163.778257980915          0.000879489310
! CAM-B3LYP def2-SVP def2/J RIJCOSX Grid4 TightSCF
%maxcore 5000
%tddft
    Mode sTDDFT
    Ethresh 5.0
    maxcore 5000
end

%pal
  nprocs 6
  end
* xyz 0 1
   C       11.83519       -13.14508        -1.87106
   C       10.88982       -12.48992        -2.55642
   C       10.80011       -12.30927        -3.97831
   C        9.73150       -11.59235        -4.38555
   C        8.88684       -11.14511        -3.32833
   S        9.51372       -11.68756        -1.78227
   C        7.74799       -10.38980        -3.43665
   C        7.14570        -9.87368        -4.61420
   C        6.02976        -9.13544        -4.39677
   C        5.67028        -9.01210        -3.02558
   S        6.81797        -9.91000        -2.02551
   C        4.63054        -8.30054        -2.51656
   N        4.37504        -8.21983        -1.17904
   C        3.38368        -7.52897        -0.56075
   S        3.67870        -7.01142         1.07774
   C        2.17677        -6.13953         1.06654
   N        1.81604        -5.46892         2.23482
   O        0.76162        -4.85894         2.24262
   O        2.59614        -5.54915         3.17256
   C        1.50532        -6.24524        -0.12161
   C        2.15693        -7.06770        -1.06117
   C        1.50937        -7.41528        -2.30215
   C        1.62466        -8.59424        -2.94947
   C        0.92565        -8.88746        -4.15260
   S        1.04595       -10.44829        -4.93648
   C       -0.02187       -10.03275        -6.25384
   C       -0.45515        -8.71580        -6.08375
   C        0.08183        -8.10463        -4.91203
   O       -0.36084        -6.83562        -4.78343
   C       -1.17601        -6.63140        -5.85452
   N       -1.79083        -5.36586        -5.98043
   O       -2.51798        -5.21049        -6.94441
   O       -1.55573        -4.53497        -5.12815
   C       -1.27662        -7.72423        -6.67549
   C       -0.30384       -10.98836        -7.25374
   C       -1.06674       -10.75640        -8.34963
   N       -1.31356       -11.71712        -9.27942
   C       -2.02651       -11.57053       -10.42063
   S       -2.72544       -10.04600       -10.85929
   C       -3.35072       -10.76972       -12.31057
   N       -4.08428        -9.95137       -13.17095
   O       -4.52457       -10.45017       -14.19181
   O       -4.22732        -8.78772       -12.83005
   C       -3.03912       -12.09545       -12.43939
   C       -2.27543       -12.58817       -11.36273
   C       -1.80337       -13.92499       -11.19576
   C       -1.99177       -14.95943       -12.05537
   C       -1.53293       -16.28309       -11.86505
   C       -0.84026       -16.82650       -10.81460
   C       -0.44619       -18.19156       -10.72516
   C        0.21960       -18.52676        -9.59058
   C        0.40660       -17.44755        -8.69165
   S       -0.30125       -15.99069        -9.36364
   C        1.02650       -17.44049        -7.46835
   C        1.63329       -18.53737        -6.79301
   C        2.16166       -18.22671        -5.58978
   C        2.01751       -16.84883        -5.21240
   S        1.16340       -15.98358        -6.50033
   C        2.43747       -16.25583        -4.08780
   H       12.65521       -13.61774        -2.38217
   H       11.80807       -13.22066        -0.79949
   H       11.54721       -12.72599        -4.63025
   H        9.51150       -11.36042        -5.41254
   H        7.56385       -10.06374        -5.58615
   H        5.44562        -8.66469        -5.16718
   H        3.97353        -7.75308        -3.17211
   H        5.09558        -8.60238        -0.57565
   H        0.55465        -5.77264        -0.29195
   H        0.81021        -6.68037        -2.67579
   H        2.25236        -9.38544        -2.56507
   H       -1.86923        -7.76444        -7.56565
   H        0.13580       -11.96730        -7.11405
   H       -1.51300        -9.79425        -8.54215
   H       -0.91899       -12.63518        -9.10283
   H       -3.35962       -12.67474       -13.28516
   H       -1.24881       -14.11590       -10.29103
   H       -2.53813       -14.78600       -12.97143
   H       -1.76753       -16.98054       -12.65940
   H       -0.67788       -18.88322       -11.51618
   H        0.58099       -19.51512        -9.37053
   H        1.65082       -19.51995        -7.22976
   H        2.65686       -18.92289        -4.93646
   H        2.95280       -16.82023        -3.33095
   H        2.27588       -15.20926        -3.90410
*
