# ORCA input file
# SCF done       -174.232023577593          0.000802591637
! CAM-B3LYP def2-SVP def2/J RIJCOSX Grid4 TightSCF
%maxcore 5000
%tddft
    Mode sTDDFT
    Ethresh 5.0
    maxcore 5000
end

%pal
  nprocs 6
  end
* xyz 0 1
   C        2.84537        -1.50113         8.19255
   C        3.78828        -2.40901         7.90465
   C        5.10763        -2.51281         8.45814
   C        5.83730        -3.54358         7.97569
   C        5.16528        -4.33446         7.00392
   S        3.55068        -3.70871         6.72582
   C        5.64765        -5.44116         6.34664
   C        6.91772        -6.05277         6.47313
   C        7.08145        -7.14888         5.68710
   C        5.96459        -7.47160         4.86966
   S        4.67698        -6.31688         5.17756
   C        5.90747        -8.58002         4.06265
   C        4.93549        -9.02680         3.14814
   S        4.91575       -10.74651         2.81776
   C        3.61973       -10.59083         1.65793
   C        3.23957        -9.24609         1.55491
   C        3.97998        -8.37909         2.36163
   C        3.82823        -6.89323         2.25844
   C        3.16605        -6.50051         0.94170
   C        1.85327        -7.27278         0.82927
   N        1.11645        -6.80462        -0.35749
   O        0.11934        -6.14464        -0.17771
   O        1.54668        -7.10957        -1.44381
   C        2.14555        -8.76080         0.65503
   C        3.19638       -11.75298         0.98649
   C        2.32325       -11.80039        -0.06941
   C        1.94845       -12.92460        -0.80501
   C        1.13675       -12.79566        -1.91805
   C        0.70103       -13.77454        -2.83182
   C       -0.04663       -13.28606        -3.87171
   C       -0.24338       -11.89568        -3.82747
   S        0.52849       -11.22277        -2.41314
   C       -0.89242       -11.04981        -4.71626
   C       -1.49686       -11.32500        -5.95458
   C       -1.98236       -10.21392        -6.58580
   C       -1.78336        -8.99780        -5.88870
   S       -0.98325        -9.33899        -4.36852
   C       -2.23764        -7.77162        -6.32814
   C       -2.12173        -6.47409        -5.80857
   S       -3.29686        -5.31445        -6.39719
   C       -2.65819        -4.03487        -5.39557
   C       -1.56718        -4.51106        -4.65514
   C       -1.24708        -5.84466        -4.91057
   C        0.00636        -6.45981        -4.37716
   C        0.99224        -5.38528        -3.93576
   C        0.26036        -4.47373        -2.94995
   N        1.25691        -3.60210        -2.29480
   O        1.38274        -2.46530        -2.68227
   O        1.91752        -4.10699        -1.41537
   C       -0.80102        -3.66633        -3.68111
   C       -3.27401        -2.77794        -5.51764
   C       -2.98561        -1.61220        -4.85427
   C       -3.60626        -0.37124        -5.05572
   C       -4.54743         0.02391        -5.98213
   C       -5.06732         1.34001        -6.06850
   C       -5.95700         1.53969        -7.07856
   C       -6.19997         0.38751        -7.86079
   S       -5.25842        -0.95932        -7.24921
   C       -7.02796         0.26286        -8.95328
   C       -7.83456         1.27332        -9.54309
   C       -8.54299         0.86495       -10.62040
   C       -8.35030        -0.51274       -10.96821
   S       -7.20918        -1.24473        -9.82888
   C       -8.91209        -1.19146       -11.97878
   H        3.03228        -0.72652         8.91506
   H        1.88369        -1.51285         7.71350
   H        5.44957        -1.80795         9.19513
   H        6.84369        -3.76955         8.28122
   H        7.66896        -5.66818         7.13918
   H        7.97904        -7.74150         5.65391
   H        6.73401        -9.26964         4.19791
   H        4.80863        -6.42115         2.33462
   H        3.22021        -6.52184         3.08770
   H        3.80616        -6.76038         0.09665
   H        2.98195        -5.42581         0.91516
   H        1.21948        -7.06911         1.69691
   H        2.44604        -8.90989        -0.38842
   H        1.23559        -9.33887         0.84026
   H        3.65220       -12.67729         1.31872
   H        1.89612       -10.88084        -0.43001
   H        2.31033       -13.90692        -0.53658
   H        0.95933       -14.81203        -2.70998
   H       -0.45030       -13.89290        -4.66292
   H       -1.54992       -12.32161        -6.35524
   H       -2.46986       -10.23118        -7.54493
   H       -2.86436        -7.83159        -7.21191
   H        0.46028        -7.08985        -5.14294
   H       -0.21284        -7.09326        -3.51496
   H        1.33833        -4.80072        -4.79095
   H        1.84572        -5.85949        -3.45106
   H       -0.17400        -5.08768        -2.15435
   H       -0.31609        -2.84193        -4.21450
   H       -1.49450        -3.23595        -2.95356
   H       -4.07761        -2.75819        -6.24099
   H       -2.21721        -1.60903        -4.09880
   H       -3.28270         0.42271        -4.39266
   H       -4.75941         2.10417        -5.37600
   H       -6.43781         2.47927        -7.28341
   H       -7.85926         2.27251        -9.14529
   H       -9.20462         1.48876       -11.19487
   H       -9.59989        -0.70716       -12.64921
   H       -8.69615        -2.22958       -12.15204
*
