# ORCA input file
# SCF done       -226.079126528739          0.000807874800
! CAM-B3LYP def2-SVP def2/J RIJCOSX Grid4 TightSCF
%maxcore 5000
%tddft
    Mode sTDDFT
    Ethresh 5.0
    maxcore 5000
end

%pal
  nprocs 6
  end
* xyz 0 1
   C        0.55462         0.19048         0.45021
   O        1.53956        -0.34477         0.91041
   C       -0.01662         1.48791         0.86084
   C       -1.20993         1.73107         0.15674
   C       -1.92247         2.89423         0.39650
   C       -1.43022         3.79564         1.33409
   C       -0.24168         3.54644         2.02671
   C        0.47457         2.37984         1.79174
  Br        0.40545         4.78926         3.29213
  Br       -2.40531         5.37890         1.66493
   C       -1.45808         0.61572        -0.75203
   C       -2.46436         0.54129        -1.67650
   C       -3.46549         1.52452        -1.83434
   N       -4.30643         2.28728        -1.99743
   C       -2.61843        -0.50686        -2.61035
   N       -2.78671        -1.31473        -3.40742
   C       -0.39452        -0.35249        -0.55699
   C       -0.37755        -1.63785        -1.02384
   C        0.70849        -2.53730        -0.93387
   S        0.40278        -4.22291        -0.71325
   C        2.08291        -4.59571        -0.52771
   C        2.87746        -3.45807        -0.79576
   C        2.09015        -2.28980        -1.02237
   C        2.70691        -1.08500        -1.39951
   C        4.07079        -1.02536        -1.48915
   C        4.75855         0.26000        -1.86239
   F        3.89445         1.27456        -2.01483
   F        5.64415         0.65055        -0.93568
   F        5.42916         0.15802        -3.02181
   C        4.86225        -2.18332        -1.27478
   C        6.27102        -2.13593        -1.41480
   N        7.41154        -2.13735        -1.51322
   C        4.26726        -3.38822        -0.96264
   C        2.39482        -5.93445        -0.17537
   N        3.47451        -6.43580         0.51032
   C        4.46681        -5.71567         1.28481
   C        5.88868        -6.01995         0.81865
   C        3.38130        -7.84554         0.66250
   O        4.17992        -8.50983         1.28004
   C        2.16305        -8.20027        -0.03035
   C        1.56324        -7.01517        -0.48719
   C        0.34205        -7.37264        -1.17181
   O       -0.50924        -6.68869        -1.70293
   N        0.29241        -8.77699        -1.09763
   C       -0.82520        -9.47991        -1.68214
   C       -1.94358        -9.71269        -0.66854
   C        1.36409        -9.28832        -0.39799
   C        1.71361       -10.61584        -0.07284
   C        0.98502       -11.76290        -0.19287
   C        1.43447       -13.04726         0.17934
   S        0.23718       -14.24659         0.53156
   C        1.40468       -15.43422         1.00941
   C        2.70966       -14.92420         0.83158
   C        2.73058       -13.57714         0.35987
   C        3.96409       -12.97217         0.05888
   C        5.12760       -13.65746         0.28880
   C        6.45827       -13.03871        -0.05014
   F        6.33144       -11.81833        -0.58953
   F        7.24856       -12.90485         1.02299
   F        7.13806       -13.77566        -0.94516
   C        5.11119       -14.97054         0.82889
   C        6.32236       -15.66131         1.08252
   N        7.28373       -16.24489         1.29471
   C        3.91166       -15.59798         1.08831
   C        1.06838       -16.74125         1.39624
   C       -0.13320       -17.25280         1.80049
   C       -0.37304       -18.71558         1.67009
   O        0.45078       -19.56873         1.44417
   C       -1.83711       -18.87437         1.81635
   C       -2.41406       -17.63222         2.14173
   C       -1.34762       -16.64288         2.28894
   C       -1.44131       -15.48736         3.02113
   C       -0.31704       -14.72484         3.39752
   N        0.58350       -14.10426         3.74585
   C       -2.64888       -14.98768         3.54946
   N       -3.61073       -14.53006         3.97561
   C       -3.78460       -17.52607         2.29749
   C       -4.56171       -18.66750         2.13060
   C       -3.98110       -19.90058         1.82355
   C       -2.60487       -20.00969         1.66287
  Br       -5.06260       -21.43557         1.61629
  Br       -6.43604       -18.52629         2.32207
   H       -2.84483         3.11836        -0.11443
   H        1.39275         2.17474         2.31994
   H       -1.28801        -2.04907        -1.44289
   H        2.10698        -0.22292        -1.64073
   H        4.87841        -4.27085        -0.89008
   H        4.36915        -6.04690         2.32478
   H        4.24289        -4.64940         1.24173
   H        6.12506        -7.06047         1.02181
   H        6.59023        -5.38906         1.35675
   H        6.01338        -5.84867        -0.24841
   H       -0.47204       -10.41558        -2.12112
   H       -1.20160        -8.83718        -2.48374
   H       -1.58428       -10.25230         0.20533
   H       -2.74670       -10.28092        -1.12941
   H       -2.34190        -8.75650        -0.33918
   H        2.68103       -10.66722         0.40718
   H       -0.04812       -11.72264        -0.50484
   H        4.00396       -11.98821        -0.37711
   H        3.90872       -16.60361         1.47817
   H        1.84994       -17.48543         1.27401
   H       -4.26381       -16.58903         2.53207
   H       -2.14763       -20.95750         1.42486
*
