# ORCA input file
# SCF done       -224.542102866291          0.000998397107
! CAM-B3LYP def2-SVP def2/J RIJCOSX Grid4 TightSCF
%maxcore 5000
%tddft
    Mode sTDDFT
    Ethresh 5.0
    maxcore 5000
end

%pal
  nprocs 6
  end
* xyz 0 1
   C        1.81845        -1.49756        -2.36979
   O        1.78583        -2.70215        -2.19859
   C        2.50264        -0.78263        -3.45655
   C        2.24728         0.59767        -3.34568
   C        2.80780         1.47184        -4.26210
   C        3.60915         0.95431        -5.27445
   C        3.84893        -0.41991        -5.38089
   C        3.29153        -1.30094        -4.46422
  Br        4.93625        -1.09475        -6.76892
  Br        4.37990         2.14635        -6.51864
   C        1.36734         0.82491        -2.20212
   C        0.75100         2.00188        -1.88947
   C        0.95801         3.20542        -2.60195
   N        1.09698         4.20473        -3.14639
   C       -0.22322         2.17213        -0.87675
   N       -1.05062         2.38429        -0.11237
   C        1.19989        -0.45791        -1.52937
   C        0.70301        -0.64206        -0.27241
   C        0.53717        -1.85001         0.44682
   S        0.67266        -3.46130        -0.20188
   C        0.23892        -4.18342         1.31125
   C        0.04863        -3.21497         2.29277
   C        0.21412        -1.91342         1.80527
   N        0.25590        -0.74603         2.66810
   O        0.97958        -0.84117         3.62783
   O       -0.35893         0.22911         2.32090
   N       -0.23807        -3.48650         3.68908
   O        0.23979        -4.49328         4.15283
   O       -0.90367        -2.66954         4.26667
   C        0.04044        -5.59048         1.45845
   N        0.75253        -6.57228         0.82238
   C        1.88478        -6.42627        -0.06181
   C        1.46800        -6.46585        -1.52914
   C        0.29569        -7.86381         1.18803
   O        0.78312        -8.88789         0.76755
   C       -0.79749        -7.60344         2.09709
   C       -0.93072        -6.20531         2.23723
   C       -2.06118        -5.95830         3.11088
   O       -2.58837        -4.93142         3.46749
   N       -2.50285        -7.24730         3.48760
   C       -3.59774        -7.37522         4.42083
   C       -4.94096        -7.53139         3.71131
   C       -1.76294        -8.22777         2.88543
   C       -1.84205        -9.64615         2.99435
   C       -2.79449       -10.41188         3.56332
   C       -2.71699       -11.85374         3.56255
   C       -3.82226       -12.67015         3.26662
   C       -5.14326       -12.10317         2.92544
   O       -5.43971       -10.94767         2.83240
   S       -6.29485       -13.43246         2.64456
   C       -5.04057       -14.69516         2.87942
   O       -5.29853       -15.85135         2.72443
   C       -3.74863       -14.06083         3.24431
   C       -2.55335       -14.77957         3.51716
   C       -1.43630       -13.95356         3.79641
   C       -1.54206       -12.56368         3.84425
   C       -0.26257       -12.02116         4.36879
   O        0.03596       -10.91770         4.69569
   O        0.59191       -13.08605         4.48981
   C       -0.00680       -14.25128         4.12083
   O        0.62542       -15.26198         4.05300
   C       -2.60835       -16.21442         3.58241
   C       -1.58784       -17.08573         3.73638
   C       -1.80109       -18.48818         3.87912
   C       -0.90680       -19.35005         4.42294
   C       -1.01086       -20.82239         4.20249
   O       -1.96867       -21.43149         3.79821
   C        0.33565       -21.34231         4.52757
   C        1.13843       -20.30261         5.03736
   C        0.33568       -19.08605         5.12858
   C        0.60586       -18.00357         5.91796
   C       -0.32520       -16.98248         6.20999
   N       -1.05577       -16.15759         6.52995
   C        1.81383       -17.84416         6.63405
   N        2.78127       -17.68353         7.22763
   C        2.45696       -20.55275         5.37845
   C        2.95328       -21.84095         5.21416
   C        2.14601       -22.87150         4.72260
   C        0.82486       -22.62341         4.37266
  Br        2.84430       -24.61436         4.52298
  Br        4.75382       -22.18541         5.66668
   H        2.64801         2.53662        -4.21147
   H        3.47013        -2.36259        -4.53500
   H        0.39312         0.24239         0.27511
   H        2.54699        -7.27252         0.14393
   H        2.41003        -5.49753         0.16922
   H        0.96950        -7.40745        -1.74417
   H        2.34975        -6.38624        -2.15748
   H        0.79791        -5.64455        -1.77055
   H       -3.60848        -6.44656         4.99958
   H       -3.39450        -8.20694         5.09829
   H       -5.13559        -6.65337         3.10060
   H       -5.73314        -7.61819         4.44955
   H       -4.96441        -8.41015         3.07162
   H       -1.01500       -10.12993         2.48967
   H       -3.70229        -9.98993         3.96284
   H       -3.60495       -16.63145         3.55618
   H       -0.56357       -16.75179         3.74555
   H       -2.71420       -18.91749         3.48154
   H        3.10673       -19.77847         5.75391
   H        0.19550       -23.41128         3.98870
*
