# ORCA input file
# SCF done       -170.828007904123          0.000700924420
! CAM-B3LYP def2-SVP def2/J RIJCOSX Grid4 TightSCF
%maxcore 5000
%tddft
    Mode sTDDFT
    Ethresh 5.0
    maxcore 5000
end

%pal
  nprocs 6
  end
* xyz 0 1
   C       -1.28313        -0.56075        -2.49084
   C       -2.51000        -0.00830        -2.69630
   S       -3.51175        -1.04821        -3.64006
   C       -2.25572        -2.25773        -3.76179
  Cl       -2.49715        -3.70107        -4.61320
   C       -1.13544        -1.84771        -3.10135
   C        0.20595        -2.38012        -2.84458
   O        0.65148        -3.44963        -3.18655
   C        0.86990        -1.33555        -1.99447
   C       -0.04933        -0.21335        -1.81903
   C        0.19120         0.98024        -1.19611
   C       -0.79956         1.98381        -1.12762
   N       -1.59455         2.80774        -1.06018
   C        1.40123         1.36206        -0.58160
   N        2.35853         1.73705        -0.07096
   C        2.04662        -1.48587        -1.34079
   C        3.01940        -2.53688        -1.52302
   C        3.31691        -3.07533        -2.77231
   C        4.24218        -4.09745        -2.89954
   N        4.48771        -4.55281        -4.24482
   O        4.44194        -3.71545        -5.12276
   O        4.73145        -5.72553        -4.43639
   C        4.94219        -4.60783        -1.78878
   C        4.66268        -4.01843        -0.54711
   C        3.73800        -3.01040        -0.41495
   C        5.94037        -5.65091        -1.90405
   C        7.00216        -5.75440        -1.08755
   C        7.99504        -6.79352        -1.20311
   C        8.60949        -7.36711        -0.09773
   C        8.39437        -7.02618         1.30360
   O        7.56260        -6.20956         1.64881
   C        9.27682        -7.74654         2.29034
   S        9.69392        -8.63559        -0.57078
   C        9.34025        -8.38278        -2.21939
   C        8.43195        -7.37849        -2.43395
   C        8.01808        -6.91968        -3.74342
   C        7.94983        -7.71671        -4.81751
   C        7.49362        -7.32053        -6.12726
   C        7.03367        -6.08284        -6.48596
   S        6.47026        -6.01422        -8.10119
   C        6.83791        -7.65864        -8.34454
   C        7.38555        -8.24042        -7.23022
   C        7.82673        -9.62620        -7.19321
   O        8.58470       -10.12820        -6.40103
   O        7.26447       -10.35615        -8.21533
   C        7.57758       -11.66550        -8.25580
   C        6.90964       -12.55143        -9.00973
   C        7.23454       -13.93955        -9.05568
   C        7.88297       -14.72323        -8.15500
   C        8.39523       -16.04825        -8.63804
   O        8.10605       -16.59103        -9.67677
   C        9.33976       -16.48004        -7.60268
   C       10.22211       -17.50084        -7.41258
   S       11.03813       -17.32599        -5.87665
   C       10.16780       -15.88196        -5.50634
   C        9.30892       -15.55504        -6.50841
   C        8.31187       -14.53279        -6.77608
   C        7.77897       -13.72916        -5.80427
   C        8.29351       -13.71597        -4.49052
   N        8.70764       -13.67417        -3.42125
   C        6.66391       -12.88367        -5.95947
   N        5.74167       -12.20278        -6.01368
  Cl       10.55764       -18.79997        -8.44627
   H       -2.89805         0.93208        -2.35850
   H        2.29340        -0.77243        -0.56327
   H        2.85009        -2.69269        -3.66573
   H        5.17352        -4.38976         0.32731
   H        3.53750        -2.59273         0.56054
   H        5.80434        -6.37177        -2.69655
   H        7.14020        -5.06725        -0.26462
   H        9.12177        -8.82034         2.21058
   H        9.03867        -7.41802         3.29834
   H       10.32290        -7.53877         2.07579
   H        9.83632        -8.97733        -2.96116
   H        7.74725        -5.87584        -3.81092
   H        8.20554        -8.76053        -4.71801
   H        6.98255        -5.19622        -5.88873
   H        6.65601        -8.12148        -9.29391
   H        8.43633       -11.94577        -7.65359
   H        6.11710       -12.20300        -9.65562
   H        6.96158       -14.45560        -9.97169
   H       10.36049       -15.37509        -4.58185
*
