# ORCA input file
# SCF done       -218.606256657287          0.000511063023
! CAM-B3LYP def2-SVP def2/J RIJCOSX Grid4 TightSCF
%maxcore 5000
%tddft
    Mode sTDDFT
    Ethresh 5.0
    maxcore 5000
end

%pal
  nprocs 6
  end
* xyz 0 1
   C       -1.63640        -0.21621        -3.72219
   C       -2.78803         0.43887        -3.41354
   S       -3.72701        -0.45446        -2.27307
   C       -2.54464        -1.74276        -2.21181
  Cl       -2.76474        -3.09929        -1.22297
   C       -1.49593        -1.46344        -3.03436
   C       -0.23482        -2.11073        -3.41887
   O        0.15402        -3.20658        -3.09143
   C        0.40389        -1.15505        -4.37606
   C       -0.47364        -0.01086        -4.56290
   C       -0.26873         1.10376        -5.33581
   C       -1.22170         2.14236        -5.38847
   N       -1.98450         2.99761        -5.44874
   C        0.85612         1.36922        -6.14064
   N        1.73951         1.65951        -6.81515
   C        1.55862        -1.36634        -5.07562
   C        2.55669        -2.35140        -4.88038
   C        2.87830        -3.09742        -3.76311
   C        4.04322        -3.86912        -4.03960
   C        4.40907        -3.58694        -5.43604
   C        3.53275        -2.66629        -5.91668
   C        5.41392        -4.20697        -6.19002
   N        6.19012        -4.72064        -6.86290
   C        4.72372        -4.69027        -3.16566
   C        5.94002        -5.37523        -3.40546
   C        6.26400        -6.13827        -2.29731
   C        5.22502        -5.92660        -1.29698
   C        4.31930        -5.04263        -1.79047
   C        3.22502        -4.55231        -1.06685
   N        2.36656        -4.16492        -0.40954
   C        7.44894        -6.90950        -2.20985
   N        7.71525        -7.95978        -1.36578
   C        6.84042        -8.57852        -0.39706
   C        7.07011        -8.01561         1.00332
   C        9.00510        -8.48905        -1.57379
   O        9.46501        -9.42691        -0.95672
   C        9.55107        -7.67174        -2.62750
   C        8.58550        -6.72174        -3.00952
   C        9.20045        -5.86401        -4.00744
   O        8.81659        -4.87641        -4.58885
   N       10.49977        -6.41152        -4.19154
   C       11.42931        -5.79680        -5.10872
   C       11.27893        -6.36753        -6.51728
   C       10.71087        -7.48307        -3.37950
   C       11.85306        -8.31651        -3.21655
   C       12.91306        -8.51480        -4.01836
   C       13.94203        -9.45309        -3.57560
   C       15.27198        -9.03452        -3.39920
   C       15.60685        -7.63195        -3.71424
   O       14.75336        -6.79674        -3.94232
   C       17.04301        -7.27435        -3.78020
   C       17.98908        -7.89259        -4.54068
   S       19.51001        -7.09776        -4.46209
   C       18.87519        -5.91238        -3.39503
   C       17.55525        -6.11264        -3.12202
   C       16.73941        -5.35826        -2.13759
   O       15.99418        -5.95003        -1.38540
   C       16.91261        -3.88993        -2.10892
   C       16.57352        -3.20876        -0.93978
   C       16.71351        -1.83697        -0.86614
   C       17.17690        -1.12942        -1.96453
   C       17.49290        -1.79643        -3.13778
   C       17.36488        -3.17091        -3.21392
   C       16.20263        -9.93040        -2.87163
   C       15.83542       -11.21885        -2.55862
   C       14.51633       -11.65851        -2.74662
   C       13.58389       -10.75619        -3.25730
   C       14.21583       -13.04572        -2.48963
   C       13.06442       -13.72718        -2.29615
   C       13.14963       -15.22448        -2.46093
   O       14.16478       -15.87454        -2.50532
   C       11.76198       -15.65956        -2.60664
   C       11.10120       -16.82003        -2.88507
   S        9.37696       -16.54944        -2.90663
   C        9.56887       -14.87629        -2.52631
   C       10.88186       -14.54725        -2.39772
   C       11.66928       -13.37365        -2.05505
   C       11.16326       -12.27877        -1.40878
   C        9.77536       -12.18468        -1.15987
   N        8.64283       -12.17564        -0.98122
   C       11.96709       -11.25142        -0.87828
   N       12.64231       -10.43857        -0.43235
  Cl       11.76114       -18.35064        -3.18417
   H       -3.15574         1.37900        -3.77366
   H        1.76034        -0.69641        -5.90420
   H        2.37748        -3.07847        -2.81675
   H        3.52456        -2.24559        -6.90564
   H        6.51570        -5.30451        -4.30638
   H        5.20242        -6.34608        -0.30980
   H        7.08747        -9.64509        -0.39429
   H        5.80460        -8.45537        -0.71926
   H        8.08454        -8.24086         1.32245
   H        6.37580        -8.47183         1.70352
   H        6.93594        -6.93584         1.02416
   H       12.44314        -5.92529        -4.72425
   H       11.18640        -4.73043        -5.13060
   H       11.41821        -7.44693        -6.52088
   H       12.01353        -5.91503        -7.17738
   H       10.28512        -6.14687        -6.89932
   H       11.81626        -8.87202        -2.28607
   H       13.03469        -8.03374        -4.97569
   H       17.86988        -8.75140        -5.17173
   H       19.51931        -5.15039        -3.00265
   H       16.20795        -3.77938        -0.09910
   H       16.45785        -1.31614         0.04442
   H       17.28396        -0.05625        -1.90981
   H       17.83769        -1.24107        -3.99744
   H       17.58940        -3.68237        -4.13801
   H       17.21468        -9.60347        -2.69003
   H       16.56368       -11.90040        -2.14536
   H       12.57205       -11.07682        -3.45469
   H       15.08616       -13.69791        -2.53522
   H        8.69888       -14.25781        -2.43270
*
