# ORCA input file
# SCF done       -195.439477287243          0.000403018839
! CAM-B3LYP def2-SVP def2/J RIJCOSX Grid4 TightSCF
%maxcore 5000
%tddft
    Mode sTDDFT
    Ethresh 5.0
    maxcore 5000
end

%pal
  nprocs 6
  end
* xyz 0 1
   C       -1.64160         7.14516         0.70830
   C       -2.07755         6.92840        -0.56914
   C       -2.52137         7.95472        -1.42989
   N       -2.88205         8.75770        -2.16586
   C       -2.21377         5.65059        -1.14695
   N       -2.39919         4.63566        -1.65044
   C       -1.69130         8.41366         1.42205
   C       -1.60864         8.15484         2.82255
   C       -1.65708         9.16390         3.74108
   C       -1.77977        10.49848         3.29360
   C       -1.84635        10.76451         1.89464
   C       -1.80209         9.70074         0.96590
   C       -1.95835        12.10186         1.46179
   C       -2.00474        13.12817         2.36511
   C       -1.94060        12.86541         3.74202
   C       -1.83148        11.57920         4.19620
   C       -1.44889         6.70616         3.04513
   O       -1.44329         6.10234         4.08847
   C       -1.24755         6.12964         1.67668
   C       -0.64044         4.93822         1.52591
   C       -0.07878         4.41516         0.29207
   C       -0.26808         3.05255        -0.08785
   C        0.24501         2.59940        -1.28023
   C        0.97096         3.45206        -2.12857
   C        1.18278         4.80285        -1.73925
   C        0.64658         5.25506        -0.52349
   N        1.87357         5.65116        -2.53089
   C        2.32824         5.17191        -3.65629
   C        2.12023         3.82902        -4.04186
   N        1.45901         2.98580        -3.29728
   C       -0.99488         2.12265         0.77168
   N       -2.02048         1.33222         0.32915
   C       -2.70215         1.40233        -0.94460
   C       -2.44128         0.16345        -1.79687
   C       -2.47665         0.45396         1.34337
   O       -3.39801        -0.32141         1.19564
   C       -1.62079         0.74397         2.46640
   C       -0.73530         1.79213         2.08728
   C        0.13265         2.04733         3.21497
   O        1.03403         2.84505         3.37629
   N       -0.29272         1.14021         4.20750
   C        0.37914         1.12474         5.48388
   C        1.37548        -0.02758         5.59068
   C       -1.32779         0.34943         3.76359
   C       -2.02395        -0.72244         4.39888
   C       -1.90147        -1.23957         5.63768
   C       -2.67750        -2.37930         6.09406
   C       -2.91570        -2.55611         7.49566
   C       -3.64044        -3.63404         7.94717
   C       -4.12928        -4.59762         7.04975
   C       -3.85803        -4.45096         5.66016
   C       -3.13989        -3.33201         5.21024
   N       -4.28307        -5.37920         4.77511
   C       -4.95742        -6.38908         5.25092
   C       -5.25391        -6.51605         6.62642
   N       -4.85018        -5.64244         7.50790
   C       -2.49457        -1.52000         8.42560
   C       -1.92832        -1.71784         9.63319
   C       -1.66229        -0.69166        10.63867
   C       -1.54546         0.65204        10.41429
   C       -1.28332         1.60038        11.42625
   N       -1.07793         2.41165        12.21120
   C       -1.59372         1.24106         9.13414
   N       -1.58227         1.75418         8.10695
   C       -1.45195        -1.37197        11.90725
   C       -1.35166        -2.77239        11.66188
   C       -1.52979        -3.03578        10.22221
   O       -1.33645        -4.07578         9.63865
   C       -1.12885        -3.66433        12.67129
   C       -1.01432        -3.19013        13.99702
   C       -1.12646        -1.79174        14.25135
   C       -1.34251        -0.88979        13.18578
   C       -1.01683        -1.33214        15.58009
   C       -0.80638        -2.20915        16.60870
   C       -0.69526        -3.58524        16.35717
   C       -0.79656        -4.06507        15.07963
   H       -1.59831         8.94680         4.79719
   H       -1.84202         9.92893        -0.08790
   H       -2.01016        12.29832         0.40097
   H       -2.09105        14.14890         2.02397
   H       -1.97733        13.68774         4.44074
   H       -1.78136        11.37119         5.25492
   H       -0.47508         4.36374         2.42815
   H        0.12588         1.57192        -1.58390
   H        0.83132         6.28041        -0.23903
   H        2.87682         5.85699        -4.28862
   H        2.50605         3.45075        -4.97895
   H       -2.39364         2.31216        -1.46046
   H       -3.77503         1.46043        -0.73363
   H       -1.38264         0.04599        -2.01550
   H       -2.98051         0.25175        -2.73563
   H       -2.79061        -0.72318        -1.27409
   H       -0.35786         1.10524         6.28979
   H        0.92039         2.07408         5.54252
   H        0.88875        -0.98968         5.44546
   H        1.84639        -0.01649         6.57008
   H        2.14876         0.08275         4.83390
   H       -2.76776        -1.14801         3.73614
   H       -1.22025        -0.81477         6.35785
   H       -3.87453        -3.75469         8.99308
   H       -2.94131        -3.25999         4.15278
   H       -5.28838        -7.13166         4.53712
   H       -5.83248        -7.35062         6.99935
   H       -2.71713        -0.50720         8.11169
   H       -1.04911        -4.72053        12.46099
   H       -1.42712         0.16266        13.40706
   H       -1.10125        -0.27191        15.76823
   H       -0.72420        -1.84768        17.62269
   H       -0.52941        -4.26291        17.18115
   H       -0.71190        -5.12323        14.88012
*
