# ORCA input file
# SCF done       -180.558969311903          0.003844088702
! CAM-B3LYP def2-SVP def2/J RIJCOSX Grid4 TightSCF
%maxcore 5000
%tddft
    Mode sTDDFT
    Ethresh 5.0
    maxcore 5000
end

%pal
  nprocs 6
  end
* xyz 0 1
   C       -1.32776         0.20986        -3.06665
   C       -1.07117         0.69341        -4.32360
   C       -0.47307        -0.06538        -5.35224
   N        0.00736        -0.61693        -6.23706
   C       -1.31904         2.00266        -4.78897
   N       -1.46709         3.04186        -5.25564
   C       -0.98253        -1.12873        -2.60458
   C       -1.26942        -1.21382        -1.21391
   C       -1.03756        -2.35064        -0.49443
   C       -0.50768        -3.48381        -1.15031
   C       -0.22704        -3.41150        -2.54545
   C       -0.46939        -2.21676        -3.26100
   C        0.29299        -4.55061        -3.19310
   C        0.52436        -5.70643        -2.49806
   C        0.24913        -5.77589        -1.12418
   C       -0.25457        -4.68792        -0.46440
   C       -1.83039         0.06329        -0.74510
   O       -2.14063         0.32271         0.39922
   C       -1.92843         0.92838        -1.94920
   C       -2.53016         2.14794        -2.07839
   C       -3.17602         2.98750        -1.14272
   S       -3.88467         4.46001        -1.77948
   C       -4.45264         4.94460        -0.22136
   C       -4.09345         3.98828         0.74525
   C       -3.37999         2.90502         0.22364
   C       -4.40916         4.07152         2.11236
   N       -4.65907         4.10709         3.23199
   C       -5.15951         6.16373        -0.10151
   C       -5.66014         6.67781         1.05464
   C       -6.34145         7.91816         1.09365
   N       -6.87016         8.46320         2.24114
   C       -6.90944         7.84562         3.54527
   C       -7.95939         6.74062         3.62407
   C       -7.44777         9.72810         2.01007
   O       -7.97750        10.39541         2.87278
   C       -7.23825         9.95420         0.59630
   C       -6.57339         8.82445         0.06022
   C       -6.36085         9.07801        -1.34485
   O       -5.85244         8.40739        -2.22284
   N       -6.89025        10.36677        -1.56247
   C       -6.94164        10.89218        -2.90626
   C       -8.36507        10.90527        -3.45570
   C       -7.40887        10.90036        -0.40764
   C       -7.95616        12.19972        -0.16325
   C       -7.96163        13.28126        -0.95192
   C       -8.51950        14.58418        -0.52219
   O       -7.71620        15.70826        -0.88763
   C       -8.77598        16.33122        -1.61405
   C       -9.69565        15.12570        -1.41011
   C      -10.96736        15.33474        -0.70230
   C      -11.90084        14.37725        -0.53379
   C      -13.19058        14.49784         0.14263
   C      -13.62807        15.56102         0.88136
   C      -14.88780        15.62269         1.51778
   N      -15.89551        15.74040         2.05393
   C      -12.89211        16.74192         1.12761
   N      -12.35389        17.72512         1.37188
   C      -13.92561        13.26380        -0.09644
   C      -13.09932        12.36805        -0.83569
   C      -11.80670        13.00751        -1.11339
   O      -10.86163        12.53040        -1.70714
   C      -13.53081        11.12465        -1.20078
   C      -14.83512        10.71586        -0.84561
   C      -15.67136        11.60934        -0.11526
   C      -15.19599        12.88650         0.25533
   C      -16.97479        11.19401         0.22609
   C      -17.43153         9.95645        -0.13645
   C      -16.60692         9.07688        -0.85425
   C      -15.33586         9.44798        -1.20058
   H       -1.25984        -2.38458         0.56173
   H       -0.24696        -2.19783        -4.31586
   H        0.50504        -4.49147        -4.25055
   H        0.92098        -6.57408        -3.00337
   H        0.43779        -6.69594        -0.59131
   H       -0.46792        -4.73558         0.59337
   H       -2.54615         2.56281        -3.07961
   H       -3.02354         2.08438         0.82057
   H       -5.29667         6.71629        -1.02284
   H       -5.53292         6.14490         1.98432
   H       -7.16350         8.64568         4.24586
   H       -5.92025         7.45393         3.79877
   H       -8.94338         7.14300         3.39510
   H       -7.97612         6.32481         4.62746
   H       -7.73701         5.94077         2.92252
   H       -6.32086        10.21809        -3.50452
   H       -6.48928        11.88599        -2.93586
   H       -8.75350         9.88958        -3.49168
   H       -8.36553        11.30907        -4.46494
   H       -9.02601        11.50273        -2.83322
   H       -8.36778        12.28476         0.83496
   H       -7.54850        13.28708        -1.94613
   H       -8.75090        14.58959         0.54899
   H       -8.48788        16.54752        -2.64471
   H       -9.11191        17.24906        -1.12252
   H       -9.82770        14.50170        -2.29448
   H      -11.12033        16.31954        -0.28181
   H      -12.88480        10.46326        -1.75826
   H      -15.85409        13.54096         0.80415
   H      -17.60544        11.87318         0.78078
   H      -18.43125         9.64739         0.12909
   H      -16.98379         8.10306        -1.13125
   H      -14.69637         8.77483        -1.75246
*
