# ORCA input file
# SCF done       -194.325119827414          0.000820709847
! CAM-B3LYP def2-SVP def2/J RIJCOSX Grid4 TightSCF
%maxcore 5000
%tddft
    Mode sTDDFT
    Ethresh 5.0
    maxcore 5000
end

%pal
  nprocs 6
  end
* xyz 0 1
   C       -7.65013         6.71465        -7.04331
   C       -6.31471         6.77503        -7.34205
   C       -5.78607         7.50887        -8.42311
   N       -5.30690         8.10914        -9.27572
   C       -5.33675         6.03504        -6.64604
   N       -4.52751         5.41446        -6.11899
   C       -8.73194         7.20734        -7.88576
   C       -9.92832         6.51196        -7.53847
   C      -11.10234         6.73520        -8.19909
   C      -11.13466         7.68340        -9.24644
   C       -9.94532         8.39161        -9.58723
   C       -8.74238         8.13765        -8.88972
   C       -9.99288         9.33670       -10.63210
   C      -11.15705         9.56996       -11.31220
   C      -12.32708         8.87213       -10.97686
   C      -12.31627         7.94928        -9.96625
   C       -9.65559         5.59706        -6.41649
   O      -10.40353         4.80843        -5.88906
   C       -8.25099         5.90208        -6.00362
   C       -7.81539         5.51954        -4.77817
   C       -6.73003         6.02944        -4.01503
   S       -6.08678         7.63788        -4.23279
   C       -4.97618         7.44668        -2.91963
   C       -5.11481         6.17796        -2.34469
   C       -6.11520         5.40327        -2.95426
   C       -4.35417         5.70409        -1.26463
   N       -3.73896         5.31376        -0.37611
   C       -4.11481         8.52230        -2.58496
   C       -3.23954         8.50752        -1.55118
   C       -2.38793         9.57323        -1.17427
   S       -2.34931        11.10695        -2.00752
   C       -1.21157        11.73081        -0.91781
   C       -0.84008        10.82146         0.04120
   N        0.21896        11.11320         0.94924
   O        0.60627        12.26030         0.99643
   O        0.69010        10.19252         1.58621
   C       -1.52046         9.57201        -0.08475
   N       -1.35178         8.48501         0.74034
   C       -1.33114         8.55575         2.10433
   S       -1.94173         9.93222         2.95670
   C       -1.59116         9.16093         4.48785
   C       -1.06067         7.87839         4.28747
   C       -0.91429         7.53651         2.94626
   C       -0.35706         6.23033         2.46895
   C        0.39268         5.53718         3.60974
   N        0.70856         4.15008         3.15728
   O        0.08794         3.24951         3.66226
   O        1.53289         4.05039         2.28877
   C       -0.47035         5.52503         4.86164
   N        0.17659         4.73180         5.95142
   O       -0.55434         4.27786         6.78692
   O        1.37882         4.65769         5.92788
   C       -0.64453         6.95351         5.39081
   C       -1.77511         9.73276         5.75180
   C       -2.30544        10.94822         6.10516
   C       -2.45329        11.44915         7.45884
   C       -2.02366        10.85333         8.61753
   C       -2.20196        11.40634         9.90295
   N       -2.31688        11.79925        10.97558
   C       -1.34670         9.61962         8.69876
   N       -0.79425         8.62049         8.83008
   C       -3.14364        12.73300         7.37614
   C       -3.39210        13.02701         6.00404
   C       -2.86793        11.93222         5.17827
   O       -2.91205        11.85609         3.95886
   C       -4.03046        14.16767         5.61146
   C       -4.46399        15.08579         6.59412
   C       -4.22309        14.79934         7.96859
   C       -3.55492        13.61014         8.34358
   C       -4.66421        15.71922         8.94083
   C       -5.31308        16.86756         8.57508
   C       -5.54914        17.14885         7.22151
   C       -5.13293        16.27702         6.25180
   H      -11.99622         6.19329        -7.92822
   H       -7.85739         8.69300        -9.15937
   H       -9.08862         9.86867       -10.88876
   H      -11.18251        10.29315       -12.11338
   H      -13.23692         9.06920       -11.52356
   H      -13.21414         7.40905        -9.70433
   H       -8.42923         4.77810        -4.27490
   H       -6.35716         4.40203        -2.64403
   H       -4.18630         9.40267        -3.21022
   H       -3.18548         7.62586        -0.93103
   H       -0.82016        12.72373        -1.02515
   H       -1.49382         7.57137         0.32960
   H        0.32563         6.39363         1.63222
   H       -1.17437         5.58597         2.12238
   H        1.34831         6.03780         3.79555
   H       -1.44390         5.06351         4.66965
   H        0.30582         7.30262         5.81076
   H       -1.37797         6.94756         6.19988
   H       -1.44635         9.10064         6.56454
   H       -4.20451        14.36678         4.56442
   H       -3.38972        13.42411         9.39268
   H       -4.47972        15.49871         9.98191
   H       -5.64788        17.56549         9.32767
   H       -6.06241        18.05932         6.95051
   H       -5.31168        16.48831         5.20760
*
