# ORCA input file
# SCF done       -203.457307933064          0.000420677601
! CAM-B3LYP def2-SVP def2/J RIJCOSX Grid4 TightSCF
%maxcore 5000
%tddft
    Mode sTDDFT
    Ethresh 5.0
    maxcore 5000
end

%pal
  nprocs 6
  end
* xyz 0 1
   C       -2.97385         0.94978        -0.07065
   C       -2.97263         1.44559         1.20673
   C       -3.83378         0.98938         2.22409
   N       -4.52851         0.66771         3.07940
   C       -2.03821         2.40078         1.65697
   N       -1.26088         3.14243         2.06140
   C       -3.68349        -0.24284        -0.51717
   C       -3.02875        -0.74658        -1.67996
   C       -3.44765        -1.88941        -2.29781
   C       -4.56653        -2.58154        -1.78145
   C       -5.23583        -2.07174        -0.63105
   C       -4.77312        -0.89197        -0.00388
   C       -6.35696        -2.76674        -0.13419
   C       -6.79580        -3.91230        -0.74037
   C       -6.13476        -4.41509        -1.87094
   C       -5.04369        -3.76435        -2.37984
   C       -1.92335         0.15630        -2.04877
   O       -1.11345         0.02813        -2.93684
   C       -2.05679         1.32335        -1.12689
   C       -1.46830         2.50174        -1.45887
   C       -1.76928         3.81834        -1.03104
   S       -3.27032         4.27782        -0.26821
   C       -2.82689         5.95397        -0.24653
   C       -1.55733         6.12980        -0.80637
   C       -0.98584         4.93227        -1.25748
   C       -0.85922         7.34957        -0.86662
   N       -0.23179         8.30841        -0.91296
   C       -3.72806         6.89618         0.30758
   C       -3.64966         8.23838         0.11328
   C       -4.49381         9.25423         0.62712
   N       -5.37387         9.22140         1.69121
   C       -5.56055         8.18022         2.67539
   C       -4.30808         7.94364         3.51331
   C       -6.01611        10.45861         1.86705
   O       -6.82189        10.67647         2.75732
   C       -5.50710        11.29499         0.80859
   C       -4.56926        10.53133         0.07812
   C       -4.07850        11.34093        -1.01828
   O       -3.30224        11.11444        -1.91782
   N       -4.75497        12.57114        -0.85986
   C       -4.49660        13.68360        -1.74113
   C       -3.55036        14.70014        -1.10723
   C       -5.60281        12.55949         0.21847
   C       -6.42028        13.64675         0.60668
   C       -7.23443        13.55858         1.69116
   C       -8.10196        14.57456         2.14644
   S       -8.21164        16.13399         1.39091
   C       -9.43529        16.64789         2.51007
   C       -9.71335        15.65554         3.43859
   C       -8.97966        14.48195         3.22000
   C       -9.11739        13.25079         4.05911
   C      -10.38479        13.28611         4.90600
   N      -11.57677        12.90985         4.07778
   O      -12.61293        13.48274         4.31136
   O      -11.42361        12.04166         3.26339
   C      -10.62473        14.65068         5.54539
   N       -9.52230        14.94964         6.51769
   O       -9.35824        16.10215         6.81789
   O       -8.90510        14.01286         6.95615
   C      -10.74312        15.77592         4.52159
   C       -9.95222        17.98331         2.44575
   S      -10.12377        18.93564         3.88691
   C      -10.57953        20.32878         3.03053
   C      -10.61432        20.10549         1.67324
   C      -10.26189        18.75447         1.32391
   C      -10.34690        18.38100        -0.03964
   F      -10.13136        17.11168        -0.41388
   C      -10.68802        19.30219        -0.99298
   F      -10.76525        18.94868        -2.28045
   C      -10.98461        20.64756        -0.64684
   F      -11.30390        21.50095        -1.62434
   C      -10.96000        21.03609         0.66135
   F      -11.26612        22.29026         1.01862
   H       -2.93337        -2.26159        -3.17136
   H       -5.30000        -0.52113         0.86179
   H       -6.86048        -2.37761         0.73857
   H       -7.65499        -4.43787        -0.35146
   H       -6.49447        -5.32022        -2.33685
   H       -4.53085        -4.14675        -3.25020
   H       -0.71494         2.43618        -2.23878
   H       -0.01209         4.87876        -1.71191
   H       -4.54173         6.46564         0.87197
   H       -2.89606         8.62371        -0.56180
   H       -5.89357         7.25793         2.19248
   H       -6.37118         8.53687         3.31867
   H       -3.47543         7.61370         2.89693
   H       -4.50857         7.18329         4.26290
   H       -4.02081         8.86240         4.01885
   H       -5.44250        14.15401        -2.02380
   H       -4.03213        13.25822        -2.63514
   H       -3.97196        15.10729        -0.19072
   H       -3.36803        15.51532        -1.80171
   H       -2.60123        14.22533        -0.87155
   H       -6.39832        14.55377         0.01891
   H       -7.23614        12.64110         2.26386
   H       -8.25043        13.15114         4.71875
   H       -9.13582        12.35793         3.42924
   H      -10.31312        12.51374         5.68246
   H      -11.54253        14.62464         6.14731
   H      -10.63620        16.72518         5.04882
   H      -11.74485        15.75266         4.08273
   H      -10.80359        21.23987         3.54717
*
