# ORCA input file
# SCF done       -219.184229327068          0.000336869417
! CAM-B3LYP def2-SVP def2/J RIJCOSX Grid4 TightSCF
%maxcore 5000
%tddft
    Mode sTDDFT
    Ethresh 5.0
    maxcore 5000
end

%pal
  nprocs 6
  end
* xyz 0 1
   C        2.47405         2.15701        -2.67677
   C        2.66350         2.85267        -3.84137
   C        3.28890         2.31312        -4.98595
   N        3.78279         1.93089        -5.94883
   C        2.32271         4.20629        -4.05195
   N        2.10058         5.30787        -4.28784
   C        2.94800         0.80586        -2.41296
   C        2.75957         0.52556        -1.02999
   C        3.12641        -0.66868        -0.47866
   C        3.70353        -1.65895        -1.30420
   C        3.88624        -1.38998        -2.69194
   C        3.50037        -0.14246        -3.23304
   C        4.45824        -2.38759        -3.50746
   C        4.83392        -3.59273        -2.97936
   C        4.65440        -3.85619        -1.61304
   C        4.10161        -2.90995        -0.79317
   C        2.13754         1.68336        -0.36822
   O        1.89137         1.78247         0.81500
   C        1.86178         2.66261        -1.45444
   C        1.05343         3.76034        -1.41889
   C        0.41135         4.40912        -0.33717
   S       -0.74284         5.65919        -0.75883
   C       -1.05248         6.01385         0.90313
   C       -0.27197         5.19412         1.73319
   C        0.54210         4.29796         1.03510
   C       -0.32538         5.29531         3.13482
   N       -0.38935         5.40562         4.27451
   C       -1.96902         6.99887         1.34280
   C       -2.73212         7.72684         0.48615
   C       -3.69684         8.73083         0.74088
   N       -4.11175         9.30507         1.91820
   C       -3.61166         9.08817         3.25515
   C       -2.25759         9.75775         3.47473
   C       -5.12237        10.27435         1.69911
   O       -5.65063        10.89969         2.58962
   C       -5.31847        10.27051         0.26387
   C       -4.44205         9.31472        -0.28571
   C       -4.65084         9.28543        -1.71624
   O       -4.12143         8.65282        -2.60286
   N       -5.67905        10.23227        -1.93506
   C       -6.10301        10.51512        -3.28656
   C       -7.19050         9.55196        -3.75869
   C       -6.08076        10.82480        -0.76423
   C       -7.06280        11.83496        -0.56630
   C       -8.10141        12.12982        -1.37993
   C       -9.08929        13.14056        -1.13609
   C       -8.89928        14.38004        -0.49222
   C       -7.65206        14.99925         0.02988
   O       -6.52162        14.62893        -0.02769
   O       -8.00138        16.19618         0.60090
   C       -9.34347        16.44563         0.46303
   O       -9.86865        17.39380         0.95356
   C       -9.91858        15.31767        -0.32013
   C      -11.23836        15.12501        -0.76901
   C      -11.43102        13.87664        -1.38215
   C      -10.41269        12.95255        -1.57778
   C      -11.00244        11.79591        -2.29030
   O      -10.49103        10.78449        -2.66404
   O      -12.33182        12.07207        -2.48730
   C      -12.66429        13.30468        -1.97561
   O      -13.76482        13.75419        -2.04066
   C      -12.31148        16.08014        -0.68188
   C      -12.15223        17.41032        -0.84630
   C      -13.25486        18.31057        -0.80712
   C      -13.17978        19.61601        -1.17833
   C      -14.24146        20.61187        -1.11659
   C      -15.50938        20.42797        -0.63391
   C      -16.49759        21.43634        -0.60153
   N      -17.34734        22.20579        -0.54849
   C      -16.02296        19.22858        -0.09454
   N      -16.51824        18.29978         0.36354
   C      -13.71031        21.86149        -1.64657
   C      -12.35015        21.66134        -2.01990
   C      -11.96714        20.26559        -1.76375
   O      -10.90056        19.74852        -2.01547
   C      -11.59009        22.66511        -2.54932
   C      -12.16642        23.94048        -2.73645
   C      -13.52791        24.14930        -2.36936
   C      -14.28888        23.09213        -1.82129
   C      -14.09583        25.42489        -2.56585
   C      -13.35641        26.44533        -3.09891
   C      -12.01595        26.23868        -3.45897
   C      -11.43336        25.01318        -3.28125
   H        2.97666        -0.85505         0.57448
   H        3.64551         0.02835        -4.28786
   H        4.59599        -2.17929        -4.55829
   H        5.27203        -4.35003        -3.61195
   H        4.95617        -4.81271        -1.21347
   H        3.96094        -3.10721         0.25946
   H        0.82999         4.22136        -2.37468
   H        1.19843         3.59107         1.50938
   H       -2.02419         7.12230         2.41420
   H       -2.62485         7.52646        -0.57485
   H       -3.56793         8.01658         3.46512
   H       -4.35134         9.54009         3.92300
   H       -1.51990         9.40338         2.75835
   H       -1.90130         9.54230         4.47804
   H       -2.35605        10.83472         3.36347
   H       -5.21958        10.37969        -3.91902
   H       -6.42597        11.55600        -3.34959
   H       -6.80608         8.53536        -3.74105
   H       -7.47543         9.79597        -4.77826
   H       -8.07742         9.59588        -3.13102
   H       -6.95864        12.34031         0.38382
   H       -8.31347        11.50823        -2.23627
   H      -13.30668        15.66303        -0.58992
   H      -11.18016        17.83077        -1.05308
   H      -14.19516        17.90556        -0.45595
   H      -10.56087        22.48535        -2.82254
   H      -15.31598        23.28447        -1.55535
   H      -15.12776        25.57944        -2.28687
   H      -13.80039        27.41832        -3.24628
   H      -11.44770        27.05545        -3.87809
   H      -10.40209        24.84789        -3.55665
*
