# ORCA input file
# SCF done       -198.701684621863          0.000865516564
! CAM-B3LYP def2-SVP def2/J RIJCOSX Grid4 TightSCF
%maxcore 5000
%tddft
    Mode sTDDFT
    Ethresh 5.0
    maxcore 5000
end

%pal
  nprocs 6
  end
* xyz 0 1
   C        0.37502        -0.99273        -4.63477
   C       -0.95870        -1.27798        -4.73101
   F       -1.59694        -1.07439        -5.89695
   C       -1.69974        -1.78085        -3.65268
   C       -1.06854        -1.99596        -2.45930
   C        0.30572        -1.72087        -2.30460
   C        1.04112        -1.20674        -3.41262
   C        2.41918        -0.91577        -3.28018
   C        3.03764        -1.13792        -2.08014
   C        2.30302        -1.67286        -0.98271
   C        0.97040        -1.95296        -1.07980
   C        3.21239        -1.87119         0.15951
   O        2.94318        -2.25368         1.27471
   C        4.57443        -1.56217        -0.36677
   C        4.41749        -0.91801        -1.65263
   C        5.29039        -0.04525        -2.24944
   C        6.53283         0.32078        -1.69794
   N        7.54385         0.65683        -1.26952
   C        5.00392         0.66052        -3.43712
   N        4.81835         1.26266        -4.39590
   C        5.65403        -1.98508         0.34919
   C        6.98614        -2.17313        -0.07381
   C        7.49289        -2.28015        -1.36203
   C        8.86203        -2.50608        -1.37142
   C        9.41575        -2.58312        -0.07618
   S        8.24419        -2.38968         1.14057
   C       10.80788        -2.80749        -0.20036
   C       11.13816        -2.86186        -1.56687
   C        9.92603        -2.66251        -2.34719
   C        9.80620        -2.60526        -3.70454
   C       10.91541        -2.75774        -4.56234
   N       11.82124        -2.88855        -5.25294
   C        8.55584        -2.39255        -4.32332
   N        7.53143        -2.22721        -4.81094
   C       12.49280        -3.09794        -1.79280
   C       13.19930        -3.23182        -0.60834
   S       12.16997        -3.04696         0.80097
   C       14.57965        -3.51665        -0.44045
   C       15.52544        -3.67289        -1.43777
   C       16.80988        -3.98924        -0.99896
   C       16.96210        -4.10388         0.36977
  Se       15.33711        -3.77320         1.26158
   C       18.14003        -4.44621         1.07839
   C       18.27435        -4.57676         2.45152
   C       19.56032        -4.95940         2.81952
   C       20.41905        -5.12111         1.71744
   S       19.63776        -4.79695         0.23075
   C       21.68580        -5.53437         2.19038
   C       21.63439        -5.62729         3.59745
   C       20.29831        -5.26734         4.03715
   C       19.82534        -5.22770         5.31522
   C       20.63572        -5.53823         6.42832
   N       21.29233        -5.78029         7.33612
   C       18.49312        -4.86448         5.60646
   N       17.41109        -4.56502         5.83848
   C       22.84148        -6.03367         4.15373
   C       23.80571        -6.29508         3.19123
   S       23.20848        -5.96113         1.56440
   C       25.13662        -6.69038         3.45206
   C       26.06542        -7.23323         2.61838
   C       27.51045        -7.12573         2.96978
   O       27.97106        -6.81141         4.04237
   C       28.23243        -7.41839         1.71701
   C       29.57032        -7.33881         1.45782
   C       30.04025        -7.64337         0.16070
   C       29.10808        -8.01936        -0.85049
   C       29.58340        -8.31126        -2.14362
   C       30.92421        -8.23296        -2.39949
   C       31.85674        -7.86923        -1.41828
   C       31.41233        -7.58018        -0.15818
   F       31.37971        -8.51184        -3.63362
   C       27.72808        -8.10278        -0.55135
   C       27.29897        -7.81417         0.71529
   C       25.96975        -7.85867         1.31752
   C       24.92043        -8.61231         0.85861
   C       23.76472        -8.87276         1.62241
   N       22.83377        -9.13653         2.24037
   C       24.92107        -9.28428        -0.38001
   N       24.86542        -9.82889        -1.38888
   H        0.91332        -0.60352        -5.48474
   H       -2.74952        -1.98738        -3.78805
   H       -1.61795        -2.38323        -1.61448
   H        2.95513        -0.53906        -4.13695
   H        0.43000        -2.34970        -0.23347
   H        5.43043        -2.28539         1.36875
   H        6.87441        -2.24407        -2.24000
   H       12.94620        -3.17884        -2.76318
   H       15.28430        -3.56017        -2.48034
   H       17.63519        -4.14234        -1.67458
   H       17.45451        -4.40170         3.12921
   H       23.02370        -6.17302         5.20408
   H       25.49782        -6.45683         4.44982
   H       30.26282        -7.04775         2.23331
   H       28.89473        -8.59933        -2.92243
   H       32.90239        -7.82535        -1.67846
   H       32.11140        -7.29744         0.61436
   H       27.04223        -8.38350        -1.33518
*
