# ORCA input file
# SCF done       -183.422617300490          0.000899086511
! CAM-B3LYP def2-SVP def2/J RIJCOSX Grid4 TightSCF
%maxcore 5000
%tddft
    Mode sTDDFT
    Ethresh 5.0
    maxcore 5000
end

%pal
  nprocs 6
  end
* xyz 0 1
   C       -8.25681        -2.17159         1.23330
   C       -9.34803        -2.84012         0.74770
   C       -9.84216        -4.04407         1.29574
   N      -10.28887        -5.02289         1.69491
   C      -10.15654        -2.42716        -0.33425
   N      -10.87776        -2.16632        -1.18835
   C       -7.46464        -2.57100         2.39106
   C       -6.49923        -1.56656         2.65281
   C       -5.59762        -1.65137         3.68630
   C       -5.64590        -2.78750         4.50018
   C       -6.61077        -3.78888         4.23079
   C       -7.52481        -3.69949         3.18801
   S       -6.49170        -5.10841         5.35319
   C       -5.16642        -4.31046         6.15823
   C       -4.82917        -3.11561         5.61597
  Br       -4.35412        -5.12924         7.63569
   C       -6.63685        -0.49144         1.65850
   O       -5.99233         0.53923         1.61521
   C       -7.69937        -0.92316         0.73297
   C       -8.03055        -0.31133        -0.44126
   C       -7.51358         0.86221        -1.02561
   N       -7.91300         1.18814        -2.23746
   C       -7.33026         2.29350        -2.65236
   C       -6.43537         2.91083        -1.74266
   S       -6.34009         1.99296        -0.30147
   N       -5.83114         4.01381        -2.17992
   C       -6.19780         4.30068        -3.39527
   S       -7.38943         3.18613        -4.12026
   C       -5.66243         5.38871        -4.12511
   C       -4.75312         6.31782        -3.64339
   C       -4.35703         7.20788        -4.63707
   C       -4.97084         6.95060        -5.87898
   S       -6.04690         5.62943        -5.81577
   C       -4.45261         7.85675        -6.83871
   C       -3.50840         8.68687        -6.20207
   C       -3.43886         8.32628        -4.79449
   C       -2.68199         8.91851        -3.82840
   C       -2.70364         8.49327        -2.48207
   N       -2.71550         8.16176        -1.38501
   C       -1.83369        10.01228        -4.10768
   N       -1.14703        10.90265        -4.33020
   C       -2.88809         9.56995        -7.08181
   C       -3.35930         9.41426        -8.37387
   S       -4.59372         8.17901        -8.50824
   C       -2.91804        10.07234        -9.54414
   N       -3.45069         9.89485       -10.71830
   C       -2.78949        10.58137       -11.64672
   C       -1.68165        11.33288       -11.19710
   S       -1.50588        11.16091        -9.49854
   N       -0.98408        11.96890       -12.12699
   C       -1.49079        11.76981       -13.31243
   S       -2.95124        10.74858       -13.34012
   C       -0.98515        12.30128       -14.52309
   C        0.24792        12.82319       -14.73982
   C        1.45490        12.83928       -13.93391
   C        1.86277        11.87146       -13.05863
   C        3.09103        11.90810       -12.36526
   N        4.07295        11.89765       -11.77147
   C        1.16854        10.66464       -12.82884
   N        0.70218         9.62961       -12.65983
   C        2.28023        13.93652       -14.42548
   C        1.72806        14.41671       -15.64153
   C        0.48175        13.68635       -15.93645
   O       -0.23354        13.78581       -16.90420
   C        2.31736        15.42055       -16.37265
   C        3.49837        15.98231       -15.87740
   C        4.03291        15.50605       -14.65486
   C        3.44204        14.48700       -13.91835
   S        5.49031        16.34578       -14.22459
   C        5.36873        17.30893       -15.67332
   C        4.29055        17.01969       -16.44050
  Br        6.67369        18.60510       -16.03397
   H       -4.87661        -0.86779         3.85848
   H       -8.23639        -4.49100         3.02340
   H       -4.03678        -2.49108         5.98601
   H       -8.77278        -0.77967        -1.07662
   H       -4.41317         6.30566        -2.62443
   H       -2.12789        10.28407        -6.82087
   H       -1.68061        12.34797       -15.35348
   H        1.88141        15.76091       -17.29867
   H        3.87997        14.15996       -12.98987
   H        4.06187        17.51643       -17.36553
*
