# ORCA input file
# SCF done       -193.777909428219          0.000465369796
! CAM-B3LYP def2-SVP def2/J RIJCOSX Grid4 TightSCF
%maxcore 5000
%tddft
    Mode sTDDFT
    Ethresh 5.0
    maxcore 5000
end

%pal
  nprocs 6
  end
* xyz 0 1
   C        1.15464        -2.70269         8.83737
   C        1.69196        -2.58840         7.59337
   C        2.01558        -1.25043         7.29105
   C        1.70245        -0.37363         8.34747
   S        1.02246        -1.19239         9.68475
   C        2.04904         0.94288         7.96578
   C        2.58536         0.89665         6.66359
   C        2.57691        -0.49150         6.20170
   C        3.00529        -0.95512         4.98725
   C        3.54286        -0.11820         3.98794
   N        3.98853         0.54151         3.16140
   C        2.94606        -2.31979         4.64440
   N        2.91741        -3.43044         4.35501
   C        2.95287         2.13578         6.17290
   C        2.70198         3.16732         7.08348
   S        2.00272         2.53830         8.58081
   C        2.89099         4.54933         6.96100
   C        3.38810         5.22858         5.86822
   C        3.50231         6.63188         5.72833
   C        3.97873         7.04536         4.51384
   C        4.27755         5.98778         3.63765
   S        3.94641         4.45472         4.40277
   C        4.73414         5.96913         2.32558
   C        4.97520         7.00047         1.40136
   C        5.33760         6.54654         0.16156
   C        5.40572         5.13922         0.05233
   S        5.02398         4.41108         1.59223
   C        5.66880         4.39086        -1.07895
   C        5.69866         2.99789        -1.15430
   C        5.82397         2.23762        -2.32958
   C        5.77784         0.88108        -2.08436
   C        5.64498         0.57183        -0.70448
   S        5.54804         1.96638         0.27093
   C        5.60471        -0.81815        -0.54340
   C        5.68624        -1.41650        -1.82968
   C        5.80967        -0.37262        -2.82837
   C        5.93383        -0.52339        -4.17961
   C        5.95427        -1.78930        -4.80160
   N        5.97555        -2.80931        -5.32516
   C        6.05528         0.58286        -5.04496
   N        6.15509         1.48395        -5.74775
   C        5.62481        -2.79770        -1.77477
   C        5.52002        -3.26426        -0.46471
   S        5.50904        -1.96824         0.72449
   C        5.41459        -4.60604        -0.04413
   C        5.43714        -4.92766         1.33925
   C        5.39094        -6.26995         1.82399
   N        5.26600        -6.48591         3.14626
   C        5.35213        -5.47131         3.95689
   C        5.57285        -4.16155         3.48462
   N        5.55536        -3.90907         2.20563
   C        5.39685        -7.37177         0.93061
   C        5.28359        -7.05987        -0.44190
   C        5.30362        -5.70171        -0.93141
   N        5.22509        -5.65760        -2.26150
   S        5.13682        -7.15440        -2.83468
   N        5.20446        -7.94269        -1.43776
   C        5.44761        -8.71780         1.36722
   C        6.11315        -9.15516         2.47990
   C        5.99897       -10.46156         3.08734
   C        5.01674       -11.38744         2.83919
   C        4.93029       -12.63827         3.48214
   N        4.81482       -13.67170         3.96985
   C        3.94709       -11.20575         1.93784
   N        3.03425       -11.13487         1.24459
   C        7.05524       -10.58745         4.08554
   C        7.78956        -9.37764         4.12006
   C        7.24742        -8.44015         3.11317
   O        7.73400        -7.37137         2.80678
   C        8.85704        -9.18426         4.96185
   C        9.21431       -10.23331         5.81592
   C        8.47619       -11.43904         5.77238
   C        7.39825       -11.63638         4.91774
   S        9.09411       -12.60770         6.90122
   C       10.31710       -11.47399         7.41029
   C       10.26813       -10.28239         6.76985
  Br       11.54529       -11.97137         8.73825
   H        0.81654        -3.59296         9.32871
   H        1.84404        -3.42028         6.93001
   H        3.37758         2.28856         5.19988
   H        2.59267         5.15294         7.80844
   H        3.21710         7.29797         6.52356
   H        4.11823         8.07475         4.23588
   H        4.85924         8.03857         1.65707
   H        5.54634         7.18516        -0.67863
   H        5.83791         4.93002        -2.00177
   H        5.92471         2.69299        -3.29839
   H        5.64857        -3.46969        -2.61351
   H        5.22136        -5.67483         5.01043
   H        5.72867        -3.32556         4.15044
   H        4.94755        -9.43303         0.72600
   H        9.40090        -8.25254         4.96165
   H        6.87257       -12.57664         4.91526
   H       10.94724        -9.47101         6.95857
*
