# ORCA input file
# SCF done       -185.521742617473          0.000600100798
! CAM-B3LYP def2-SVP def2/J RIJCOSX Grid4 TightSCF
%maxcore 5000
%tddft
    Mode sTDDFT
    Ethresh 5.0
    maxcore 5000
end

%pal
  nprocs 6
  end
* xyz 0 1
   C       -1.68925         0.32119         6.79352
   C       -1.34667         1.57923         7.18392
   C       -1.26829         2.45500         6.08347
   C       -1.56105         1.81564         4.87058
   S       -1.92689         0.16158         5.08307
   C       -1.46067         2.76637         3.81962
   C       -1.10311         4.00534         4.37246
   C       -0.97173         3.84752         5.81863
   C       -0.64173         4.81684         6.72070
   C       -0.37615         6.14587         6.33056
   N       -0.16093         7.22772         6.01617
   C       -0.54500         4.55435         8.10322
   N       -0.46546         4.34638         9.22808
   C       -0.98060         5.01215         3.42031
   C       -1.24443         4.55259         2.13711
   S       -1.64745         2.84099         2.12301
   C       -1.22170         5.31402         0.95009
   S       -0.81254         7.00891         1.00724
   C       -1.01975         7.22079        -0.71521
   C       -1.38638         6.01424        -1.28442
   C       -1.49776         4.93401        -0.36359
   C       -1.85113         3.72679        -1.01080
   C       -1.99491         3.88935        -2.35625
   C       -2.33174         2.88036        -3.36297
   O       -2.42264         3.10318        -4.54390
   O       -2.52334         1.67204        -2.80927
   C       -2.84772         0.62993        -3.71893
   S       -1.71789         5.52340        -2.91346
   C       -0.82290         8.47579        -1.33470
   C       -1.10266         8.81731        -2.64852
   C       -0.78771        10.14738        -2.91658
   C       -0.25135        10.82371        -1.80340
   S       -0.15357         9.82221        -0.42213
   C        0.04089        12.15335        -2.17944
   C       -0.31989        12.33011        -3.52890
   C       -0.85552        11.07394        -4.03412
   C       -1.32972        10.82741        -5.28848
   C       -1.34733        11.82029        -6.29077
   N       -1.36297        12.62722        -7.10530
   C       -1.84164         9.56783        -5.66683
   N       -2.26485         8.54953        -5.97984
   C       -0.07060        13.61543        -3.99500
   C        0.48998        14.42810        -3.01796
   S        0.70002        13.57427        -1.49337
   C        0.86395        15.77860        -3.16405
   S        0.52420        16.62315        -4.65299
   C        1.23530        18.11528        -4.08743
   C        1.71215        17.93771        -2.80101
   C        1.50797        16.63300        -2.26834
   C        2.02137        16.51429        -0.95616
   C        2.58465        17.67605        -0.51899
   C        3.22291        17.94442         0.77189
   O        3.69247        19.00760         1.09048
   O        3.22399        16.85603         1.55835
   C        3.83003        17.02462         2.83232
   S        2.52071        18.98295        -1.67841
   C        1.26285        19.27208        -4.90126
   C        1.82477        20.50218        -4.59884
   C        1.65712        21.41556        -5.63854
   C        0.96376        20.88216        -6.73487
   S        0.51955        19.25202        -6.49304
   C        0.84364        21.89320        -7.72840
   C        1.46151        23.05895        -7.25820
   C        1.99716        22.80363        -5.93496
   C        2.68103        23.67038        -5.13410
   C        2.95720        24.99669        -5.52754
   N        3.18389        26.07575        -5.84261
   C        3.16353        23.30058        -3.86072
   N        3.56164        23.00872        -2.82600
   C        1.38642        24.11722        -8.18424
   C        0.72650        23.74109        -9.31415
   S        0.17947        22.09639        -9.28762
   H       -1.82185        -0.54523         7.40989
   H       -1.16183         1.85780         8.20520
   H       -0.71725         6.03481         3.62292
   H       -1.98951         2.77951        -0.52435
   H       -2.98160        -0.26526        -3.11754
   H       -2.03992         0.49205        -4.44059
   H       -3.76414         0.87134        -4.26118
   H       -1.52217         8.12599        -3.35568
   H       -0.27096        13.96817        -4.99081
   H        1.98682        15.62541        -0.35464
   H        3.75067        16.06387         3.33391
   H        3.31097        17.79986         3.39955
   H        4.87642        17.31521         2.71867
   H        2.32584        20.70485        -3.67051
   H        1.79342        25.09964        -8.02951
   H        0.51948        24.33434       -10.18215
*
