# ORCA input file
# SCF done       -200.531741099051          0.000660169860
! CAM-B3LYP def2-SVP def2/J RIJCOSX Grid4 TightSCF
%maxcore 5000
%tddft
    Mode sTDDFT
    Ethresh 5.0
    maxcore 5000
end

%pal
  nprocs 6
  end
* xyz 0 1
   C      -10.77149        -0.59915        -3.84383
   C      -10.58715        -0.47595        -5.19234
   F      -11.15793         0.53618        -5.86093
   C       -9.79762        -1.40659        -5.89602
   F       -9.63302        -1.26101        -7.21902
   C       -9.20307        -2.44864        -5.24127
   C       -9.37339        -2.60237        -3.85201
   C      -10.17136        -1.66190        -3.13901
   C      -10.35409        -1.79460        -1.74319
   C       -9.75536        -2.83405        -1.08145
   C       -8.95846        -3.76775        -1.80182
   C       -8.76658        -3.66729        -3.14854
   C       -8.41785        -4.77396        -0.86228
   O       -7.71471        -5.72346        -1.13263
   C       -8.91166        -4.36936         0.47370
   C       -9.75903        -3.21095         0.33145
   C      -10.46784        -2.57404         1.32056
   C      -10.49817        -2.95676         2.67323
   N      -10.59063        -3.19883         3.79334
   C      -11.28656        -1.44575         1.10889
   N      -11.96997        -0.52888         1.00471
   C       -8.53345        -5.01533         1.62111
   C       -7.69241        -6.10046         1.60341
   C       -6.93122        -7.05340         1.64592
   C       -6.04828        -8.10161         1.55710
   S       -5.56744        -8.71397        -0.00728
   C       -4.50881        -9.87026         0.75166
   C       -4.54167        -9.76319         2.13769
   C       -5.41023        -8.78097         2.58605
   C       -3.75640       -10.75608         0.01035
   C       -3.10479       -11.53179        -0.66827
   C       -2.31991       -12.43675        -1.35257
   C       -1.32559       -13.13325        -0.72353
   C       -0.48655       -14.07377        -1.33334
   C        0.53798       -14.70021        -0.66005
   C        1.43832       -15.67895        -1.14155
   C        2.35522       -16.09997        -0.22186
   C        2.23303       -15.46835         1.03299
   S        0.90653       -14.33143         1.01606
   C        2.98803       -15.62313         2.18270
   C        4.07439       -16.48589         2.44171
   C        4.58278       -16.37166         3.70339
   C        3.92667       -15.40537         4.50130
   S        2.62964       -14.65032         3.59123
   C        4.16929       -15.02402         5.80090
   C        3.39726       -14.02424         6.34452
   C        2.63092       -13.12468         6.65298
   C        1.73059       -12.10932         6.87629
   S        0.76755       -11.54313         5.53168
   C       -0.03409       -10.38554         6.56702
   C        0.43877       -10.46174         7.86865
   C        1.42744       -11.42003         8.04077
   C       -0.98846        -9.53237         6.05939
   C       -1.80987        -8.78851         5.55073
   C       -2.72695        -7.90412         5.02268
   C       -3.50078        -7.08863         5.79516
   C       -4.42679        -6.18430         5.24299
   C       -5.23592        -5.30535         5.90911
   C       -6.42633        -4.74825         5.22064
   O       -6.64878        -4.76069         4.02827
   C       -7.29548        -4.23631         6.29630
   C       -8.56323        -3.73870         6.21191
   C       -9.22336        -3.34121         7.39577
   C       -8.55590        -3.46708         8.64769
   C       -9.22834        -3.07299         9.82150
   C      -10.50048        -2.57805         9.75038
   C      -11.15849        -2.45555         8.50994
   C      -10.53427        -2.82868         7.35287
   F      -12.40769        -1.96923         8.48007
   F      -11.13818        -2.20401        10.86957
   C       -7.23843        -3.97924         8.70299
   C       -6.61564        -4.35488         7.54324
   C       -5.27605        -4.88372         7.29018
   C       -4.21539        -4.78546         8.15513
   C       -2.87186        -5.02788         7.80209
   N       -1.75724        -5.15960         7.55999
   C       -4.32673        -4.31914         9.48072
   N       -4.36152        -3.97233        10.57481
   H      -11.37922         0.12225        -3.32018
   H       -8.60111        -3.15271        -5.79417
   H      -10.96155        -1.06453        -1.23322
   H       -8.15694        -4.38931        -3.67027
   H       -8.85549        -4.67259         2.59452
   H       -3.95097       -10.39491         2.77766
   H       -5.58879        -8.55088         3.62189
   H       -2.51112       -12.57255        -2.40900
   H       -1.16257       -12.94081         0.33036
   H       -0.63965       -14.32364        -2.37475
   H        1.38091       -16.04443        -2.15185
   H        3.11309       -16.83809        -0.41524
   H        4.44890       -17.16684         1.69809
   H        5.40887       -16.94797         4.08168
   H        4.94848       -15.49566         6.38013
   H        0.06813        -9.82283         8.65035
   H        1.91945       -11.62540         8.97471
   H       -2.80082        -7.86196         3.94218
   H       -3.41326        -7.16614         6.86890
   H       -4.59385        -6.23303         4.17092
   H       -9.06979        -3.64472         5.26324
   H       -8.74061        -3.15670        10.78019
   H      -11.04066        -2.73503         6.40482
   H       -6.75921        -4.07191         9.66464
*
