# ORCA input file
# SCF done       -172.184059660464          0.000628726356
! CAM-B3LYP def2-SVP def2/J RIJCOSX Grid4 TightSCF
%maxcore 5000
%tddft
    Mode sTDDFT
    Ethresh 5.0
    maxcore 5000
end

%pal
  nprocs 6
  end
* xyz 0 1
   C       -3.46916         2.15460        -5.22403
   C       -2.82013         3.22717        -5.78675
   C       -2.94883         3.60326        -7.13681
   N       -3.03894         3.96872        -8.22233
   C       -1.88622         4.02333        -5.09587
   N       -1.08793         4.67642        -4.59098
   C       -4.23325         1.15261        -5.96471
   C       -4.36404        -0.00904        -5.14972
   C       -5.00376        -1.12972        -5.59171
   C       -5.56290        -1.13702        -6.89003
   C       -5.44954         0.02567        -7.70456
   C       -4.77372         1.17107        -7.22138
   C       -6.01582         0.00708        -8.99491
   C       -6.66062        -1.10612        -9.46156
   C       -6.77098        -2.25078        -8.65880
   C       -6.23349        -2.26556        -7.40030
   C       -3.73247         0.24648        -3.84235
   O       -3.60539        -0.52279        -2.91345
   C       -3.32102         1.67400        -3.87236
   C       -2.94196         2.26523        -2.70049
   C       -2.89248         3.63064        -2.31334
   C       -3.66706         4.61985        -2.92937
   C       -3.80895         5.88150        -2.38759
   C       -3.21209         6.23660        -1.17122
   C       -2.20609         5.36410        -0.65217
   C       -1.18846         5.73282         0.22493
  Si       -0.57494         4.13810         0.84059
   C       -1.00995         3.27917        -0.69958
   C       -2.07423         4.01820        -1.20884
   C       -3.66060         7.41040        -0.50916
   C       -3.81494         7.58055         0.84507
   C       -4.36373         8.71711         1.48884
   C       -4.57660         8.56418         2.82802
   C       -4.21348         7.29408         3.31798
   S       -3.55259         6.30918         2.03139
   C       -4.34554         6.77776         4.59597
   C       -4.91366         7.36627         5.74131
   C       -4.93571         6.53965         6.82759
   C       -4.38292         5.25452         6.60829
   S       -3.80566         5.15372         4.95507
   C       -4.39664         4.22949         7.53044
   C       -3.90800         2.91362         7.40717
   C       -3.01766         2.53303         6.38380
   C       -2.70971         1.22066         6.12278
   C       -3.27708         0.17375         6.86963
   C       -3.87603         0.51827         8.11514
   C       -4.03502        -0.35243         9.19141
  Si       -5.44818         0.39033        10.04703
   C       -4.95621         2.07768         9.56403
   C       -4.28489         1.90343         8.35840
   C       -3.24831        -1.13341         6.33572
   C       -4.18173        -2.13314         6.50238
   C       -4.04808        -3.47442         5.97452
   C       -2.90730        -4.04796         5.46722
   C       -2.83551        -5.37216         4.99093
   N       -2.70897        -6.43936         4.58477
   C       -1.64625        -3.42537         5.37582
   N       -0.58163        -3.00316         5.27783
   C       -5.32669        -4.15668         6.14558
   C       -6.22185        -3.26548         6.80127
   C       -5.54441        -1.97839         7.04052
   O       -6.06608        -0.98339         7.52683
   C       -7.50343        -3.62302         7.10185
   C       -7.95839        -4.91600         6.75411
   C       -7.07080        -5.81082         6.09215
   C       -5.74663        -5.41029         5.79355
   C       -7.53612        -7.09359         5.74175
   C       -8.81736        -7.47805         6.03207
   C       -9.69037        -6.59678         6.68536
   C       -9.26949        -5.34302         7.03910
   H       -5.08300        -2.00183        -4.95966
   H       -4.70857         2.03969        -7.85805
   H       -5.92589         0.88999        -9.61085
   H       -7.08882        -1.11067       -10.45290
   H       -7.28337        -3.12072        -9.04208
   H       -6.31471        -3.14422        -6.77691
   H       -2.74397         1.55093        -1.90508
   H       -4.25503         4.36352        -3.79866
   H       -4.48562         6.58166        -2.85680
   H       -1.19453         6.70448         0.69205
   H       -0.84706         2.25860        -1.00597
   H       -4.06940         8.19621        -1.13353
   H       -4.59000         9.61306         0.93777
   H       -4.98829         9.32503         3.46666
   H       -5.30459         8.36792         5.73437
   H       -5.34309         6.81479         7.78479
   H       -4.91294         4.47329         8.44938
   H       -2.57287         3.29766         5.76717
   H       -2.08427         0.97783         5.27545
   H       -3.77498        -1.39339         9.07830
   H       -5.38798         3.02676         9.83950
   H       -2.46007        -1.31847         5.61491
   H       -8.16517        -2.92827         7.59802
   H       -5.10108        -6.10893         5.28572
   H       -6.85922        -7.76866         5.23872
   H       -9.16432        -8.46350         5.75906
   H      -10.69837        -6.91500         6.90675
   H       -9.93878        -4.65947         7.54149
*
