# ORCA input file
# SCF done       -189.579957753795          0.000942852391
! CAM-B3LYP def2-SVP def2/J RIJCOSX Grid4 TightSCF
%maxcore 5000
%tddft
    Mode sTDDFT
    Ethresh 5.0
    maxcore 5000
end

%pal
  nprocs 6
  end
* xyz 0 1
   C        1.49440        -3.04169        -3.53854
   O        2.70185        -2.95111        -3.39878
   C        0.65632        -2.38619        -4.53096
   C       -0.67883        -2.73166        -4.36366
   C       -1.51901        -2.11541        -5.31042
   C       -0.79928        -1.32792        -6.16046
   S        0.89423        -1.31164        -5.83816
   C       -0.79203        -3.64137        -3.23902
   C       -1.97131        -4.17044        -2.78694
   C       -3.20245        -3.86522        -3.40632
   N       -4.21347        -3.63304        -3.89616
   C       -2.12525        -5.04704        -1.69418
   N       -2.32724        -5.75678        -0.81452
   C        0.55639        -3.84750        -2.73073
   C        0.89667        -4.67250        -1.69347
   C        2.15044        -4.97158        -1.13544
   C        2.29268        -5.89311        -0.09244
   C        3.60962        -6.05880         0.29277
   C        4.49245        -5.24600        -0.45607
   S        3.70425        -4.29625        -1.62747
   C        5.81075        -5.50306        -0.00099
   C        5.76612        -6.46832         1.01650
   C        4.38131        -6.84596         1.24294
   C        3.91096        -7.74978         2.14958
   C        2.53654        -8.03877         2.28472
   N        1.42209        -8.28107         2.39959
   C        4.77234        -8.45825         3.01340
   N        5.47464        -9.03375         3.71379
   C        7.03167        -6.80007         1.50887
   C        8.03762        -6.09488         0.88337
   S        7.40704        -4.99643        -0.33328
   C        9.46122        -6.18944         1.10581
   C       10.30668        -5.17095         0.66570
   C       11.66709        -5.30097         0.87910
   C       12.20172        -6.45515         1.50869
   C       11.34880        -7.46374         1.94459
   C        9.99547        -7.32363         1.74817
   C       13.61859        -6.27990         1.53506
   C       13.87741        -5.02086         0.93281
   N       12.68979        -4.44277         0.55876
   C       12.54421        -3.17161        -0.09247
   C       15.17062        -4.55107         0.79179
   C       16.22320        -5.34593         1.24586
   C       15.96092        -6.59509         1.84158
   C       14.67594        -7.06014         1.99115
   C       17.58530        -4.88674         1.11151
   C       18.74238        -5.63622         1.14908
   C       19.88850        -4.85127         0.99623
   C       19.59857        -3.48716         0.85006
   S       17.91973        -3.17901         0.88251
   C       20.81877        -2.77575         0.73079
   C       21.88285        -3.69609         0.78416
   C       21.33192        -5.03127         0.94939
   C       22.02012        -6.20500         1.03954
   C       21.36826        -7.44485         1.20866
   N       20.83202        -8.44966         1.34110
   C       23.42795        -6.26041         0.96016
   N       24.57057        -6.31339         0.88492
   C       23.12899        -3.08591         0.67734
   C       23.03419        -1.70698         0.59465
   S       21.35353        -1.16908         0.57513
   C       24.11630        -0.80458         0.45330
   C       24.17321         0.52149         0.74010
   C       25.24058         1.36306         0.10851
   O       26.21488         0.96719        -0.48638
   C       24.78226         2.72857         0.34363
   C       23.63803         2.74932         1.13433
   C       23.30627         1.39061         1.51689
   C       22.53518         1.05465         2.59841
   C       21.79604         2.01980         3.31227
   N       21.17031         2.78917         3.88923
   C       22.47484        -0.23735         3.15714
   N       22.43849        -1.26382         3.67014
   C       23.17943         4.05409         1.39388
   C       23.97755         4.97881         0.78704
   S       25.29865         4.29947        -0.08839
   H       -2.58426        -2.23901        -5.36956
   H       -1.17608        -0.74264        -6.97637
   H        0.08522        -5.20656        -1.21266
   H        1.45033        -6.40605         0.33726
   H        7.20606        -7.50798         2.29755
   H        9.89211        -4.30377         0.17331
   H       11.74573        -8.34429         2.42506
   H        9.32956        -8.10824         2.06849
   H       13.34251        -2.50296         0.22695
   H       11.58917        -2.72629         0.18317
   H       12.58418        -3.27548        -1.18120
   H       15.37896        -3.59988         0.32457
   H       16.78542        -7.18744         2.20362
   H       14.48833        -8.01600         2.45470
   H       18.75191        -6.70425         1.26261
   H       24.07370        -3.59869         0.69633
   H       25.00826        -1.21621        -0.01037
   H       22.31463         4.30061         1.98156
   H       23.86633         6.04530         0.81028
*
