# ORCA input file
# SCF done       -184.906116992584          0.000810962756
! CAM-B3LYP def2-SVP def2/J RIJCOSX Grid4 TightSCF
%maxcore 5000
%tddft
    Mode sTDDFT
    Ethresh 5.0
    maxcore 5000
end

%pal
  nprocs 6
  end
* xyz 0 1
   C        0.88358       -11.44251        -5.65779
   O        0.64638       -10.65449        -4.76704
   C        2.08670       -11.45266        -6.51139
   C        2.01895       -12.52920        -7.41311
   C        3.04824       -12.72348        -8.32082
   C        4.12433       -11.84352        -8.30829
   C        4.18300       -10.77955        -7.40353
   C        3.15395       -10.57824        -6.49373
  Br        5.65902        -9.60140        -7.40738
  Br        5.52509       -12.10903        -9.54821
   C        0.78117       -13.26921        -7.17768
   C        0.41816       -14.42165        -7.81593
   C        1.19436       -15.04195        -8.82156
   N        1.77948       -15.58877        -9.64235
   C       -0.74913       -15.18014        -7.56898
   N       -1.65718       -15.86807        -7.43410
   C        0.05207       -12.57317        -6.12345
   C       -1.19960       -12.88464        -5.68593
   C       -1.98429       -12.27765        -4.67820
   S       -1.57018       -10.94976        -3.60128
   C       -3.16472       -11.16873        -2.92500
   N       -3.83945       -12.13595        -3.50864
   N       -3.19667       -12.73397        -4.45220
   C       -3.70584       -10.40412        -1.85201
   C       -3.02557        -9.43422        -1.21365
   C       -3.52157        -8.65830        -0.09812
   C       -2.69186        -7.89185         0.62798
   C       -4.93763        -8.71361         0.25906
   S       -6.19816        -8.49480        -0.92063
   C       -7.42706        -8.62893         0.27735
   C       -8.85321        -8.48428        -0.10813
   C       -6.88310        -8.82033         1.52537
   C       -5.46204        -8.84591         1.50490
   C       -7.63737        -8.94793         2.76013
   C       -8.63515        -9.91245         2.98178
   C       -8.93954       -10.99003         2.01536
   O       -8.41810       -11.21459         0.96621
   S      -10.24749       -12.02093         2.68200
   C      -10.36194       -11.07341         4.19510
   O      -11.15493       -11.33399         5.05013
   C       -9.34979        -9.99060         4.17722
   C       -9.13034        -9.11474         5.26312
   C       -8.09552        -8.18558         5.05418
   C       -7.38655        -8.11647         3.85749
   C       -6.39977        -7.01556         3.98045
   O       -5.62986        -6.56807         3.19138
   O       -6.51179        -6.52418         5.25985
   C       -7.48791        -7.17628         5.96450
   O       -7.71589        -6.91792         7.10582
   C       -9.92148        -9.21360         6.46473
   C      -10.28618        -8.17247         7.24011
   C      -11.13244        -8.34096         8.37102
   C      -11.73690        -7.35748         9.08287
   C      -12.29707        -7.66001        10.43418
   O      -12.52168        -8.74985        10.89696
   C      -12.45358        -6.34107        11.08206
   C      -12.14464        -5.32170        10.16092
   C      -11.84239        -5.92554         8.86390
   C      -11.86972        -5.26997         7.66443
   C      -11.81825        -5.88752         6.39486
   N      -11.81925        -6.31644         5.33049
   C      -12.05544        -3.87361         7.54302
   N      -12.19410        -2.74577         7.39081
   C      -12.18156        -3.99722        10.56443
   C      -12.53796        -3.71050        11.87726
   C      -12.85999        -4.72811        12.78047
   C      -12.81532        -6.05823        12.38327
  Br      -13.35276        -4.30840        14.55395
  Br      -12.57867        -1.90584        12.43190
   H        3.04027       -13.53027        -9.03528
   H        3.18444        -9.76025        -5.79074
   H       -1.72458       -13.70975        -6.15210
   H       -4.71251       -10.67768        -1.57048
   H       -2.00702        -9.22020        -1.51293
   H       -1.63984        -7.83922         0.40650
   H       -3.05189        -7.30751         1.45640
   H       -8.97251        -7.67971        -0.83123
   H       -9.47362        -8.27508         0.76119
   H       -9.20581        -9.40712        -0.57178
   H       -4.86240        -9.01389         2.38063
   H      -10.33182       -10.19008         6.68348
   H       -9.94429        -7.17573         7.01623
   H      -11.27075        -9.34906         8.74734
   H      -11.93196        -3.18743         9.89789
   H      -13.05597        -6.85223        13.07312
*
