# ORCA input file
# SCF done       -213.929407894913          0.000946373975
! CAM-B3LYP def2-SVP def2/J RIJCOSX Grid4 TightSCF
%maxcore 5000
%tddft
    Mode sTDDFT
    Ethresh 5.0
    maxcore 5000
end

%pal
  nprocs 6
  end
* xyz 0 1
   C        1.66808        -1.83814        -4.21470
   O        0.68844        -2.52286        -4.39456
   C        2.36192        -1.01485        -5.22818
   C        3.32480        -0.20148        -4.60520
   C        4.08473         0.66930        -5.37029
   C        3.87450         0.70737        -6.74358
   C        2.91532        -0.10571        -7.35325
   C        2.14454        -0.97241        -6.58976
  Br        2.65290        -0.04209        -9.22287
  Br        4.91886         1.88995        -7.78414
   C        3.33038        -0.48133        -3.17188
   C        4.17319         0.08165        -2.25338
   C        5.12679         1.07737        -2.56022
   N        5.91135         1.89297        -2.74793
   C        4.22706        -0.25472        -0.88252
   N        4.34937        -0.48559         0.23475
   C        2.33895        -1.51561        -2.92549
   C        1.97022        -2.01957        -1.71958
   C        1.15814        -3.18530        -1.53040
   C        0.28218        -3.28822        -0.45463
   F        0.15884        -2.24366         0.37702
   C       -0.52756        -4.40325        -0.21614
   F       -1.36135        -4.32164         0.83618
   C       -0.51053        -5.54267        -1.01989
   C        0.41612        -5.48643        -2.10103
   C        1.24459        -4.33947        -2.35115
   N        2.08327        -4.54220        -3.36333
   S        1.81636        -6.00668        -3.96856
   N        0.66146        -6.46882        -2.96205
   C       -1.30178        -6.72226        -0.86065
   C       -2.07573        -7.03164         0.21254
   C       -2.81231        -8.23866         0.29953
   N       -3.54537        -8.59551         1.40644
   C       -3.74599        -7.81220         2.60257
   C       -4.77692        -6.70612         2.39251
   C       -4.16521        -9.84785         1.25028
   O       -4.85647       -10.36396         2.10368
   C       -3.76342       -10.28122        -0.07209
   C       -2.93971        -9.27479        -0.62855
   C       -2.55651        -9.69807        -1.96013
   O       -1.87039        -9.17955        -2.81546
   N       -3.19112       -10.94246        -2.12296
   C       -3.00453       -11.71885        -3.32567
   C       -1.97231       -12.82653        -3.13158
   C       -3.90307       -11.31047        -1.00672
   C       -4.62626       -12.52504        -0.91330
   C       -5.24176       -12.92117         0.23131
   C       -5.98067       -14.12930         0.42114
   C       -6.38007       -15.03609        -0.55914
   F       -6.08667       -14.81701        -1.85296
   C       -7.10730       -16.19423        -0.27364
   F       -7.43106       -16.98426        -1.31218
   C       -7.49706       -16.58115         1.00768
   C       -7.11615       -15.68213         2.04133
   C       -6.37954       -14.48319         1.74271
   N       -6.11385       -13.77873         2.83772
   S       -6.72770       -14.52828         4.10985
   N       -7.36356       -15.79369         3.34441
   C       -8.17745       -17.82038         1.20635
   C       -8.52939       -18.33403         2.41075
   C       -9.18915       -19.57478         2.59649
   C       -9.24907       -20.68012         1.80022
   C      -10.31999       -21.68049         2.07406
   O      -11.02048       -21.74174         3.05571
   C      -10.36791       -22.53620         0.86969
   C       -9.32506       -22.17335        -0.00179
   C       -8.52215       -21.12265         0.62702
   C       -7.23148       -20.82631         0.27843
   C       -6.38191       -19.96683         1.00384
   N       -5.63577       -19.29469         1.55919
   C       -6.56344       -21.40742        -0.82136
   N       -5.97676       -21.84705        -1.70372
   C       -9.19960       -22.80815        -1.22576
   C      -10.10956       -23.80749        -1.55249
   C      -11.12819       -24.17714        -0.67139
   C      -11.26514       -23.53483         0.55251
  Br      -12.33804       -25.55108        -1.13901
  Br       -9.95309       -24.66808        -3.22750
   H        4.82965         1.31569        -4.93537
   H        1.39762        -1.60206        -7.04771
   H        2.28960        -1.52449        -0.81074
   H       -1.22696        -7.41995        -1.68532
   H       -2.13675        -6.36729         1.05978
   H       -2.79105        -7.39634         2.93458
   H       -4.10851        -8.51150         3.36126
   H       -4.45206        -6.00642         1.62608
   H       -4.92324        -6.16156         3.32094
   H       -5.72761        -7.13750         2.08881
   H       -2.64983       -11.01611        -4.08473
   H       -3.96345       -12.13239        -3.64889
   H       -1.01587       -12.39672        -2.84426
   H       -1.84240       -13.37324        -4.06112
   H       -2.28641       -13.52329        -2.35776
   H       -4.65334       -13.14121        -1.79805
   H       -5.16992       -12.30292         1.11727
   H       -8.43334       -18.35651         0.30129
   H       -8.35638       -17.73456         3.29333
   H       -9.79269       -19.65571         3.49675
   H       -8.43043       -22.54403        -1.93351
   H      -12.05244       -23.80728         1.23808
*
