# ORCA input file
# SCF done       -163.712882143455          0.000585768279
! CAM-B3LYP def2-SVP def2/J RIJCOSX Grid4 TightSCF
%maxcore 5000
%tddft
    Mode sTDDFT
    Ethresh 5.0
    maxcore 5000
end

%pal
  nprocs 6
  end
* xyz 0 1
   C        2.66975         2.64317        -2.13326
   C        2.04168         3.69526        -2.72551
   S        2.06665         3.54978        -4.44441
   C        2.93966         2.03726        -4.36799
  Cl        3.37768         1.19987        -5.77388
   C        3.18613         1.69380        -3.07232
   C        3.84988         0.59237        -2.36540
   O        4.35316        -0.39284        -2.85255
   C        3.69075         0.92525        -0.91234
   C        2.97871         2.19470        -0.79164
   C        2.67830         2.88992         0.34774
   C        1.99117         4.12197         0.29339
   N        1.43198         5.12326         0.26657
   C        3.00204         2.50612         1.66508
   N        3.23734         2.26176         2.76180
   C        3.99613         0.10307         0.12228
   C        4.74505        -1.12808         0.06925
   C        5.86556        -1.29690        -0.75100
   C        6.52650        -2.50283        -0.79520
   C        6.09137        -3.58653        -0.02540
   C        5.02208        -3.39347         0.85878
   C        4.37028        -2.18402         0.91151
   C        6.73437        -4.88394        -0.05819
   N        7.27111        -5.49260        -1.16622
   C        7.14126        -5.10987        -2.55487
   C        5.68625        -4.99441        -2.99536
   C        7.83297        -6.74791        -0.84349
   O        8.34820        -7.47834        -1.66783
   C        7.63372        -6.88050         0.57765
   C        6.93430        -5.72488         1.02421
   C        6.74453        -5.84662         2.45560
   O        6.19315        -5.13958         3.27132
   N        7.34760        -7.07813         2.77803
   C        7.39686        -7.55124         4.14042
   C        8.76184        -7.30655         4.77862
   C        7.87952        -7.70079         1.67357
   C        8.52903        -8.96199         1.71786
   C        9.00963        -9.57732         0.60981
   C        9.64283       -10.84618         0.67738
   S       10.16744       -11.71200        -0.75828
   C       10.70343       -12.96370         0.35507
   N       10.47736       -12.65258         1.60233
   N        9.90012       -11.50527         1.77783
   C       11.28430       -14.17936        -0.09701
   C       11.64802       -15.16918         0.75097
   C       12.26531       -16.39090         0.36894
   C       12.21352       -17.09136        -0.79611
   C       13.27033       -18.13254        -1.02706
   O       14.04922       -18.55173        -0.20605
   C       13.15881       -18.46278        -2.45080
   C       13.82386       -19.23373        -3.35679
   S       13.07276       -19.11280        -4.93054
   C       11.86381       -18.03057        -4.34144
   C       12.03543       -17.77549        -3.01690
   C       11.36622       -17.01672        -1.97400
   C       10.09016       -16.53186        -2.08877
   C        9.38196       -16.61127        -3.30691
   N        8.79938       -16.65129        -4.29445
   C        9.32643       -15.97557        -1.04589
   N        8.64449       -15.53113        -0.23683
  Cl       15.18766       -20.20506        -3.10245
   H        1.56367         4.54338        -2.27711
   H        3.60865         0.35548         1.10251
   H        6.23426        -0.46750        -1.33203
   H        7.40736        -2.59498        -1.40962
   H        4.71166        -4.20217         1.49995
   H        3.53738        -2.05264         1.58603
   H        7.63789        -5.90934        -3.11426
   H        7.67552        -4.17714        -2.75074
   H        5.15186        -5.91532        -2.77270
   H        5.64709        -4.82157        -4.06709
   H        5.18645        -4.16788        -2.49604
   H        7.13924        -8.61339         4.16846
   H        6.63260        -6.98662         4.68215
   H        9.54633        -7.83030         4.23716
   H        8.75332        -7.65704         5.80681
   H        8.98770        -6.24295         4.77580
   H        8.63472        -9.46085         2.66986
   H        8.91630        -9.12022        -0.36537
   H       11.45213       -14.26258        -1.16195
   H       11.53487       -14.98598         1.81074
   H       12.93774       -16.82224         1.10651
   H       11.12070       -17.65616        -5.01710
*
