# ORCA input file
# SCF done       -219.526650748740          0.000907006436
! CAM-B3LYP def2-SVP def2/J RIJCOSX Grid4 TightSCF
%maxcore 5000
%tddft
    Mode sTDDFT
    Ethresh 5.0
    maxcore 5000
end

%pal
  nprocs 6
  end
* xyz 0 1
   C        5.29692         4.77273         6.25400
   C        5.17211         6.08429         5.91384
   S        6.59490         6.66421         5.12975
   C        7.37976         5.10902         5.25525
  Cl        8.94281         4.85605         4.65637
   C        6.56313         4.21065         5.87794
   C        6.62472         2.80955         6.28939
   O        7.51632         2.00221         6.15383
   C        5.30985         2.55281         6.95043
   C        4.49010         3.75616         6.89774
   C        3.20862         3.91460         7.34059
   C        2.53972         5.15357         7.23694
   N        1.98841         6.15548         7.15380
   C        2.42584         2.88223         7.89788
   N        1.74680         2.05890         8.31869
   C        5.06048         1.37052         7.55168
   C        6.04617         0.30811         7.57454
   C        6.82067         0.05940         8.67735
   N        6.73100         0.80825         9.85931
   O        5.90411         1.71383         9.87611
   O        7.46140         0.52308        10.78597
   C        7.78064        -0.98369         8.38517
   C        7.57927        -1.38525         7.11324
   C        6.46805        -0.65027         6.54159
   C        5.87981        -0.78324         5.30760
   C        4.87660         0.08729         4.76250
   C        4.76948        -0.14840         3.43267
   C        5.66797        -1.20926         3.06453
   N        5.68204        -1.66319         1.73240
   O        4.73923        -1.33812         1.03256
   O        6.62310        -2.32953         1.32688
   C        6.30618        -1.68929         4.21220
   C        7.01570        -2.88355         4.45558
   C        7.73647        -3.62056         3.55447
   C        8.32627        -4.85293         3.88590
   N        9.04624        -5.60767         2.99424
   C        9.34997        -5.25825         1.62483
   C       10.51453        -4.27574         1.53940
   C        9.51508        -6.79861         3.56504
   O       10.17318        -7.62364         2.96601
   C        9.02626        -6.75850         4.93307
   C        8.30844        -5.56432         5.10085
   C        7.83234        -5.51597         6.47144
   O        7.19234        -4.67886         7.07484
   N        8.29990        -6.70683         7.04477
   C        7.98882        -7.05105         8.41332
   C        6.83091        -8.04110         8.50223
   C        9.00753        -7.47069         6.14771
   C        9.58041        -8.71627         6.45204
   C       10.29010        -9.44566         5.53499
   C       10.87110       -10.70169         5.79897
   C       10.81241       -11.47226         6.95060
   C       11.53969       -12.67135         6.74779
   C       12.08575       -12.59767         5.37665
   C       11.67591       -11.42801         4.82433
   C       12.91624       -13.54069         4.75799
   N       13.61690       -14.28830         4.23872
   C       11.69995       -13.71940         7.63167
   C       12.37240       -14.94337         7.39084
   C       12.28685       -15.74318         8.51528
   C       11.53654       -15.00650         9.52400
   C       11.18223       -13.79878         9.01306
   C       10.46285       -12.80583         9.68545
   N        9.87145       -11.99619        10.24721
   C       12.78968       -17.05486         8.68676
   C       13.53449       -17.69986         7.74485
   C       13.99077       -19.02521         7.89152
   C       14.59394       -19.79215         6.93737
   C       15.34347       -21.01763         7.35863
   O       15.29160       -21.55059         8.44094
   C       16.16450       -21.36040         6.19279
   C       17.13161       -22.26858         5.88017
   S       17.67365       -22.04300         4.23398
   C       16.57915       -20.73097         3.98537
   C       15.84857       -20.48148         5.10410
   C       14.78232       -19.58286         5.51422
   C       14.01495       -18.85464         4.64246
   C       14.32165       -18.81529         3.26449
   N       14.56832       -18.77420         2.14517
   C       12.81447       -18.18503         4.95523
   N       11.80838       -17.66226         5.13457
  Cl       17.78547       -23.48061         6.86609
   H        4.34773         6.75120         6.07219
   H        4.14085         1.20271         8.09993
   H        8.51966        -1.32389         9.08416
   H        8.16206        -2.11792         6.59599
   H        4.33162         0.82138         5.32032
   H        4.13002         0.34698         2.72631
   H        6.94294        -3.25737         5.46863
   H        7.87156        -3.25555         2.54910
   H        8.45900        -4.84230         1.14892
   H        9.61930        -6.19241         1.12496
   H       10.27744        -3.34501         2.04918
   H       10.72727        -4.05570         0.49754
   H       11.40411        -4.70676         1.99286
   H        7.70950        -6.11512         8.90479
   H        8.88210        -7.45149         8.89942
   H        5.93765        -7.61178         8.05512
   H        6.62386        -8.26644         9.54425
   H        7.06613        -8.96882         7.98571
   H        9.45311        -9.10139         7.45303
   H       10.42517        -9.04722         4.53757
   H       10.29026       -11.23020         7.85465
   H       11.89925       -11.06743         3.83741
   H       12.82754       -15.20589         6.45795
   H       11.31354       -15.37383        10.50899
   H       12.53173       -17.57073         9.60322
   H       13.80707       -17.16746         6.84649
   H       13.91711       -19.48068         8.87387
   H       16.56200       -20.23427         3.03568
*
