# ORCA input file
# SCF done       -201.766383645896          0.000574479118
! CAM-B3LYP def2-SVP def2/J RIJCOSX Grid4 TightSCF
%maxcore 5000
%tddft
    Mode sTDDFT
    Ethresh 5.0
    maxcore 5000
end

%pal
  nprocs 6
  end
* xyz 0 1
   C        7.14068         2.74822        -8.78872
   C        6.79044         3.89906        -9.42524
   S        5.09201         4.18104        -9.31407
   C        4.84183         2.71617        -8.39283
  Cl        3.30351         2.25905        -7.85593
   C        6.02677         2.07122        -8.19699
   C        6.47588         0.84425        -7.53274
   O        5.79003         0.00385        -7.00157
   C        7.96128         0.82253        -7.74118
   C        8.34633         1.99084        -8.52260
   C        9.60177         2.37142        -8.91865
   C        9.80638         3.55186        -9.66529
   N        9.99269         4.50409       -10.27710
   C       10.80462         1.68673        -8.65476
   N       11.82182         1.18540        -8.47404
   C        8.80867        -0.18537        -7.38843
   C        8.56777        -1.29799        -6.53970
   C        7.64507        -1.47270        -5.53348
   C        7.83127        -2.76196        -4.94686
   C        8.96333        -3.38050        -5.65918
   C        9.40750        -2.49300        -6.58496
   C        9.50718        -4.64961        -5.42629
   N        9.97371        -5.68548        -5.25930
   C        7.08093        -3.32654        -3.94231
   C        7.17380        -4.65022        -3.42840
   C        6.18599        -4.82866        -2.48148
   C        5.44379        -3.58277        -2.35241
   C        5.97049        -2.67625        -3.21267
   C        5.54831        -1.34393        -3.32010
   N        5.18487        -0.25527        -3.34485
   C        5.91959        -6.00562        -1.75741
   S        4.53120        -6.09737        -0.63188
   C        4.99066        -7.71074        -0.31010
   C        6.14254        -8.05418        -1.05772
   N        6.62174        -7.10941        -1.83753
   C        6.55907        -9.46003        -0.77676
   C        5.51025        -9.88201         0.20817
   C        4.60465        -8.82147         0.45212
   S        3.37588        -9.24397         1.56154
   C        4.06198       -10.85453         1.71863
   C        5.20511       -11.01704         0.92092
   C        3.42994       -11.76824         2.56812
   C        3.93163       -13.00837         2.89074
   C        3.29280       -13.91217         3.74625
   C        3.89108       -14.91467         4.51877
   N        5.21957       -15.36063         4.47078
   O        5.96129       -14.90019         3.61393
   O        5.55966       -16.19940         5.28731
   C        2.93907       -15.40171         5.46348
   C        1.75862       -14.72978         5.30158
   C        1.88200       -13.84917         4.19004
   C        0.84881       -13.25909         3.48422
   C        0.81486       -13.12788         2.05407
   C       -0.45433       -12.82474         1.66992
   C       -1.26285       -12.67075         2.84041
   N       -2.61735       -12.28756         2.76924
   O       -3.25862       -12.19431         3.80226
   O       -3.07530       -12.07917         1.66014
   C       -0.48720       -12.90899         3.97822
   C       -0.84846       -12.60558         5.31020
   C        0.04305       -12.34302         6.30976
   C       -0.35917       -11.90826         7.58557
   C        0.44278       -11.43117         8.58466
   C       -0.13014       -11.31681         9.96357
   O       -1.29490       -11.41889        10.26273
   C        1.03421       -11.10542        10.82960
   C        1.28307       -10.99263        12.16432
   S        2.99320       -10.76207        12.44896
   C        3.34603       -10.81250        10.76083
   C        2.21671       -10.99986        10.02590
   C        1.84978       -11.08959         8.62209
   C        2.69729       -10.73685         7.60017
   C        4.04363       -10.39303         7.85376
   N        5.14646       -10.12333         8.01889
   C        2.39184       -10.57015         6.23790
   N        2.25128       -10.36741         5.11504
  Cl        0.17538       -11.04988        13.44338
   H        7.40558         4.60017        -9.95350
   H        9.80707        -0.16482        -7.81105
   H        6.90047        -0.77013        -5.22090
   H       10.22838        -2.63254        -7.26435
   H        7.87659        -5.39674        -3.73950
   H        4.62523        -3.42565        -1.67407
   H        7.56637        -9.50525        -0.35838
   H        6.55366       -10.07177        -1.68083
   H        5.76207       -11.93530         0.88661
   H        2.52131       -11.42675         3.04469
   H        4.92474       -13.28523         2.56324
   H        3.15123       -16.18027         6.17232
   H        0.84333       -14.92363         5.82692
   H        1.63566       -13.36641         1.40606
   H       -0.82871       -12.71332         0.67022
   H       -1.90364       -12.44851         5.49605
   H        1.09979       -12.43508         6.11525
   H       -1.41094       -11.99226         7.83967
   H        4.36231       -10.70980        10.43604
*
