# ORCA input file
# SCF done       -175.689703385338          0.000460069853
! CAM-B3LYP def2-SVP def2/J RIJCOSX Grid4 TightSCF
%maxcore 5000
%tddft
    Mode sTDDFT
    Ethresh 5.0
    maxcore 5000
end

%pal
  nprocs 6
  end
* xyz 0 1
   C       -2.67763         2.33286        -6.65257
   C       -2.64864         2.99872        -7.84959
   C       -2.54841         2.35803        -9.10303
   N       -2.47395         1.89825       -10.15213
   C       -2.65607         4.40103        -8.00901
   N       -2.63155         5.52973        -8.21974
   C       -2.53880         0.89262        -6.48558
   C       -2.39627         0.61384        -5.09726
   C       -2.23437        -0.65810        -4.62831
   C       -2.21351        -1.73183        -5.54595
   C       -2.36409        -1.46234        -6.93721
   C       -2.52645        -0.13392        -7.39267
   C       -2.34611        -2.54201        -7.84354
   C       -2.18607        -3.82627        -7.39924
   C       -2.03783        -4.09037        -6.02938
   C       -2.05086        -3.06550        -5.12248
   C       -2.45856         1.86843        -4.32961
   O       -2.32182         1.97507        -3.12893
   C       -2.74666         2.93256        -5.32674
   C       -3.16471         4.21245        -5.10200
   C       -3.24785         4.96545        -3.90838
   S       -4.05925         6.51682        -4.00539
   C       -3.74403         6.86572        -2.34295
   C       -3.02770         5.81239        -1.75322
   C       -2.75759         4.75759        -2.63365
   C       -2.60087         5.77595        -0.41486
   N       -2.23239         5.71757         0.67092
   C       -4.20399         8.08716        -1.79072
   C       -3.95432         8.51744        -0.52892
   C       -4.41702         9.74605         0.00243
   S       -5.49264        10.77285        -0.90027
   C       -5.50343        11.93754         0.38785
   C       -4.69497        11.55080         1.45443
   C       -4.10032        10.29520         1.24117
   C       -3.17571         9.62515         2.20967
   C       -1.71399         9.92990         1.87214
   C       -4.49605        12.37774         2.68512
   C       -5.61114        12.14714         3.70846
   C       -6.29477        13.10807         0.25761
   O       -6.39201        13.98131         1.27611
   C       -7.21093        14.99579         0.91283
   C       -7.66242        14.77673        -0.38811
   C       -7.07320        13.55539        -0.81520
   C       -7.25097        12.94684        -2.06395
   N       -7.41296        12.46686        -3.09289
   C       -8.52638        15.60008        -1.12284
   N       -9.23510        16.27634        -1.71768
   C       -7.48205        16.04960         1.81781
   C       -6.94127        16.08643         3.06546
   C       -7.20120        17.13265         3.97827
   C       -6.66294        17.21086         5.23177
   C       -6.88669        18.26008         6.21167
   C       -7.73494        19.33038         6.09404
   C       -7.91175        20.31232         7.09222
   N       -8.10293        21.14402         7.85999
   C       -8.56023        19.61235         4.98510
   N       -9.26244        19.91255         4.12741
   C       -6.05313        17.96955         7.37325
   C       -5.34843        16.75489         7.13665
   C       -5.70895        16.22766         5.81220
   O       -5.30110        15.19822         5.31158
   C       -4.48364        16.22967         8.05363
   C       -4.27858        16.90833         9.27502
   C       -4.98039        18.12382         9.52111
   C       -5.86924        18.64317         8.55211
   C       -4.77001        18.79325        10.74382
   C       -3.90782        18.28837        11.67882
   C       -3.21620        17.09237        11.43462
   C       -3.39772        16.41682        10.25836
   H       -2.12501        -0.84204        -3.56978
   H       -2.64491         0.03650        -8.45088
   H       -2.45913        -2.33348        -8.89728
   H       -2.17272        -4.64627        -8.10144
   H       -1.91346        -5.10987        -5.69632
   H       -1.93724        -3.26262        -4.06651
   H       -3.51678         4.75978        -5.96929
   H       -2.22518         3.86893        -2.34645
   H       -4.78574         8.71440        -2.45505
   H       -3.35213         7.91011         0.12928
   H       -3.33147         8.54571         2.18554
   H       -3.39439         9.96731         3.22108
   H       -1.46957         9.56809         0.87632
   H       -1.05758         9.44136         2.58715
   H       -1.52766        11.00124         1.90281
   H       -4.47240        13.43435         2.41783
   H       -3.53609        12.13042         3.13803
   H       -6.58444        12.35060         3.26873
   H       -5.46996        12.81315         4.55504
   H       -5.60342        11.11792         4.06039
   H       -8.14586        16.82786         1.46652
   H       -6.28525        15.28859         3.38153
   H       -7.86674        17.91561         3.63874
   H       -3.96107        15.30702         7.84824
   H       -6.38166        19.56648         8.76985
   H       -5.30458        19.71367        10.92734
   H       -3.75374        18.80830        12.61237
   H       -2.53907        16.70907        12.18316
   H       -2.86811        15.49540        10.06478
*
