# ORCA input file
# SCF done       -214.757580206498          0.000606742836
! CAM-B3LYP def2-SVP def2/J RIJCOSX Grid4 TightSCF
%maxcore 5000
%tddft
    Mode sTDDFT
    Ethresh 5.0
    maxcore 5000
end

%pal
  nprocs 6
  end
* xyz 0 1
   C        2.03215         1.31430        -0.80433
   C        3.26750         1.90042        -0.74103
   C        4.48348         1.18463        -0.78623
   N        5.50640         0.66479        -0.80872
   C        3.51500         3.28470        -0.62027
   N        3.79895         4.39199        -0.51252
   C        1.77157        -0.10990        -0.96345
   C        0.36457        -0.31182        -1.05247
   C       -0.18044        -1.55351        -1.21084
   C        0.67475        -2.67428        -1.29175
   C        2.08403        -2.48284        -1.20093
   C        2.61837        -1.18484        -1.03510
   C        2.92825        -3.60920        -1.28007
   C        2.40766        -4.86432        -1.44191
   C        1.02012        -5.05137        -1.53177
   C        0.17213        -3.97961        -1.45893
   C       -0.32284         0.97924        -0.95310
   O       -1.52227         1.17339        -0.92230
   C        0.74767         1.99932        -0.79652
   C        0.54279         3.32217        -0.55328
   C       -0.66875         4.05885        -0.67673
   S       -0.90366         5.38001         0.43456
   C       -2.41794         5.80265        -0.29093
   C       -2.70491         4.95981        -1.36112
   C       -1.71268         3.99439        -1.59020
   C       -1.77555         3.14519        -2.81997
   N       -0.41805         2.88120        -3.34652
   O       -0.14181         1.73920        -3.62596
   O        0.31562         3.82869        -3.48585
   C       -2.55865         3.89751        -3.90133
   C       -3.97288         4.16552        -3.40445
   C       -3.97831         5.02763        -2.13743
   N       -5.14099         4.60543        -1.26050
   O       -6.09545         4.14640        -1.82905
   O       -5.03959         4.77086        -0.07446
   C       -3.22912         6.87452         0.14015
   C       -3.07189         7.62506         1.25933
   C       -4.02810         8.62484         1.56688
   N       -3.99612         9.42395         2.67873
   C       -2.95012         9.47333         3.67105
   C       -1.72314        10.22688         3.16400
   C       -5.12120        10.27759         2.75337
   O       -5.30269        11.06507         3.65252
   C       -5.88834         9.94726         1.56858
   C       -5.19117         8.94392         0.85719
   C       -5.97887         8.61396        -0.30431
   O       -5.78023         7.83544        -1.22704
   N       -7.12332         9.41519        -0.20757
   C       -8.09390         9.39276        -1.27630
   C       -8.04870        10.66453        -2.11860
   C       -7.08676        10.22247         0.91464
   C       -8.04947        11.13960         1.40829
   C       -9.32400        11.35032         0.99529
   C      -10.17300        12.29640         1.62768
   S      -11.86304        12.47449         1.16123
   C      -11.93349        13.72734         2.40212
   N      -10.78630        13.89085         3.00135
   N       -9.83488        13.11773         2.58551
   C      -13.12907        14.43874         2.67791
   C      -13.20945        15.43977         3.59010
   C      -14.43728        16.10643         3.82834
   C      -14.61708        17.14237         4.69582
   C      -15.86272        17.83998         4.96942
   C      -17.10317        17.53760         4.46986
   C      -18.27945        18.25108         4.78496
   N      -19.27443        18.78367         4.99553
   C      -17.40406        16.48071         3.58526
   N      -17.73872        15.64583         2.87088
   C      -15.56985        18.92482         5.89896
   C      -14.18372        18.88817         6.22369
   C      -13.53749        17.77622         5.50569
   O      -12.37027        17.45853         5.56209
   C      -13.61721        19.79071         7.07698
   C      -14.42627        20.79345         7.65613
   C      -15.81415        20.83855         7.33608
   C      -16.37249        19.88973         6.44978
   C      -16.61287        21.84438         7.91789
   C      -16.06851        22.76231         8.77410
   C      -14.70175        22.71720         9.08805
   C      -13.89821        21.75365         8.54136
   H       -1.25095        -1.67821        -1.27737
   H        3.68891        -1.07489        -0.96730
   H        3.99582        -3.46028        -1.21156
   H        3.06257        -5.72056        -1.50191
   H        0.62668        -6.04880        -1.65897
   H       -0.89700        -4.11752        -1.52768
   H        1.37332         3.90529        -0.17493
   H       -2.23296         2.17045        -2.60719
   H       -2.60093         3.29762        -4.81180
   H       -2.04347         4.83489        -4.12496
   H       -4.45906         3.21086        -3.19053
   H       -4.55199         4.65407        -4.18729
   H       -4.21710         6.07184        -2.37673
   H       -4.07604         7.09896        -0.49171
   H       -2.25191         7.44373         1.93898
   H       -2.68464         8.45634         3.97316
   H       -3.37520         9.99809         4.53113
   H       -1.30475         9.74473         2.28319
   H       -0.96380        10.25668         3.94022
   H       -1.99480        11.24719         2.90498
   H       -9.09291         9.21379        -0.87153
   H       -7.82226         8.53332        -1.89722
   H       -8.25154        11.54578        -1.51472
   H       -8.78811        10.60520        -2.91255
   H       -7.06499        10.77565        -2.56842
   H       -7.70343        11.71181         2.26018
   H       -9.77445        10.80067         0.18517
   H      -14.00467        14.14349         2.11354
   H      -12.32950        15.73464         4.14209
   H      -15.28817        15.74927         3.26125
   H      -12.56305        19.73953         7.30573
   H      -17.42563        19.95392         6.22728
   H      -17.66452        21.87475         7.67319
   H      -16.68832        23.52888         9.21451
   H      -14.28898        23.44989         9.76529
   H      -12.84534        21.71383         8.77933
*
