# ORCA input file
# SCF done       -175.007320049616          0.000699131730
! CAM-B3LYP def2-SVP def2/J RIJCOSX Grid4 TightSCF
%maxcore 5000
%tddft
    Mode sTDDFT
    Ethresh 5.0
    maxcore 5000
end

%pal
  nprocs 6
  end
* xyz 0 1
   C        0.07395        -0.26204         2.49597
   C       -0.63485        -1.26928         1.90244
   C       -0.00364        -2.28632         1.16368
   C        1.36305        -2.32379         0.99654
   C        2.12612        -1.27181         1.57179
   C        1.47411        -0.24251         2.33943
   N        2.30108         0.67129         2.83794
  Se        3.93545         0.27524         2.36538
   N        3.43921        -1.12841         1.45672
   C        2.04309        -3.40125         0.30916
   C        3.10527        -4.14000         0.78065
   N        3.73478        -4.05566         2.03679
   O        3.18073        -3.44169         2.93328
   O        4.79809        -4.63790         2.16453
   C        3.46272        -5.14160        -0.19802
   C        2.59059        -5.06199        -1.23064
   C        1.68474        -3.96576        -0.99141
   C        0.75638        -3.44260        -1.87118
   C        0.33083        -2.08278        -1.93419
   C       -0.37417        -1.90373        -3.08368
   C       -0.48690        -3.15042        -3.78254
   N       -1.27472        -3.22216        -4.93356
   O       -1.36948        -4.27786        -5.55139
   O       -1.85319        -2.20238        -5.27999
   C        0.18220        -4.14352        -3.04376
   C        0.24396        -5.54243        -3.12949
   C        0.04629        -6.33172        -4.23871
   C        0.12756        -7.73072        -4.22648
   C        0.57465        -8.54971        -3.18114
   C        0.60570        -9.88832        -3.58779
   O        0.99632       -10.81616        -2.71204
   C        1.17998       -12.16727        -3.07723
   C        0.12297        -9.96675        -4.92873
   C       -0.09295        -8.60104        -5.37455
   C       -0.29648        -8.22895        -6.68934
   C       -0.88254        -7.06312        -7.23438
   C       -0.83512        -7.15903        -8.60867
   O       -1.35304        -6.25617        -9.42618
   C       -1.29227        -6.47623       -10.82034
   C       -0.12819        -8.39031        -8.97437
   C        0.17078        -9.04273        -7.84278
   C       -0.30256       -11.10107        -5.63726
   C       -1.25086       -11.08781        -6.63464
   C       -1.56983       -12.20885        -7.42110
   C       -0.95601       -13.45468        -7.45260
   C       -1.56712       -14.25723        -8.44065
   C       -2.63213       -13.42880        -9.04110
   C       -2.62283       -12.21900        -8.42358
   C       -3.51520       -13.80501       -10.05830
   N       -4.25378       -14.08280       -10.89398
   C       -1.23073       -15.54890        -8.79748
   C       -1.78200       -16.33338        -9.84526
   C       -1.13955       -17.55209        -9.89365
   C       -0.14841       -17.57049        -8.83085
   C       -0.19264       -16.38298        -8.16740
   C        0.59682       -16.03765        -7.06862
   N        1.24743       -15.75885        -6.16158
   C       -1.39062       -18.62200       -10.82280
   C       -2.52385       -18.62822       -11.62044
   C       -2.80164       -19.64662       -12.54312
   C       -1.95703       -20.70908       -12.71772
   C       -0.78567       -20.76222       -11.93930
   C       -0.49093       -19.72159       -10.97940
   N        0.65069       -19.90072       -10.32880
  Se        1.41051       -21.38092       -10.87749
   N        0.12712       -21.72590       -12.00747
   H       -0.40166         0.50720         3.08260
   H       -1.70842        -1.30577         2.01155
   H       -0.60508        -3.08070         0.74683
   H        4.28757        -5.81727        -0.07659
   H        2.63517        -5.62932        -2.13997
   H        0.61788        -1.31691        -1.24183
   H       -0.79724        -0.98760        -3.45100
   H        0.49516        -6.03593        -2.20081
   H       -0.16944        -5.85618        -5.17845
   H        0.88052        -8.23154        -2.20302
   H        1.64211       -12.63924        -2.21093
   H        1.84693       -12.26608        -3.93682
   H        0.22461       -12.65881        -3.28109
   H       -1.38326        -6.27631        -6.70807
   H       -1.80270        -5.63051       -11.27746
   H       -1.80064        -7.40318       -11.09985
   H       -0.25694        -6.50779       -11.17132
   H        0.11809        -8.68833        -9.97585
   H        0.76330        -9.93143        -7.75169
   H        0.09303       -12.06605        -5.36043
   H       -1.81514       -10.18389        -6.81776
   H       -0.13345       -13.77246        -6.84439
   H       -3.27796       -11.39138        -8.62631
   H       -2.55191       -15.98814       -10.50579
   H        0.49789       -18.39968        -8.61928
   H       -3.23480       -17.82290       -11.52203
   H       -3.70884       -19.58151       -13.12479
   H       -2.15672       -21.49811       -13.42433
*
