# ORCA input file
# SCF done       -238.595950254924          0.000828656415
! CAM-B3LYP def2-SVP def2/J RIJCOSX Grid4 TightSCF
%maxcore 5000
%tddft
    Mode sTDDFT
    Ethresh 5.0
    maxcore 5000
end

%pal
  nprocs 6
  end
* xyz 0 1
   C        3.39103        -4.17069         2.56840
   C        4.41559        -4.95708         2.12113
   F        5.68376        -4.63758         2.40709
   C        4.15255        -6.11125         1.35551
   F        5.17581        -6.86414         0.93129
   C        2.86820        -6.46201         1.04636
   C        1.79090        -5.67135         1.49161
   C        2.05538        -4.50596         2.26866
   C        0.98991        -3.70180         2.73441
   C       -0.29876        -4.05038         2.42831
   C       -0.55321        -5.20701         1.63773
   C        0.45460        -6.00707         1.18069
   C       -2.00544        -5.34263         1.42783
   O       -2.57064        -6.23691         0.82614
   C       -2.61667        -4.16750         2.07134
   C       -1.57804        -3.44271         2.78244
   C       -1.76445        -2.44578         3.70081
   C       -3.02149        -2.00912         4.17694
   N       -4.00019        -1.65254         4.65767
   C       -0.70781        -1.78178         4.35971
   N        0.11608        -1.20498         4.91237
   C       -3.90541        -3.74351         1.90193
   C       -4.97163        -4.37204         1.23352
   S       -5.02582        -5.99390         0.57761
   C       -6.70265        -5.83409         0.09819
   C       -7.17009        -4.56353         0.42103
   C       -6.21044        -3.76089         1.04797
   C       -6.74237        -2.41869         1.32090
   O       -6.14746        -1.46445         1.75275
   C       -8.20331        -2.46723         0.90062
   C       -8.42023        -3.81636         0.21957
   O       -9.40410        -4.15816        -0.38071
   C       -7.42795        -6.88165        -0.51069
   C       -6.83485        -8.01834        -0.96893
   C       -7.55116        -9.09314        -1.54136
   N       -6.95695       -10.18780        -2.12692
   C       -5.54111       -10.44217        -2.23972
   C       -4.95284       -10.98169        -0.93814
   C       -7.90544       -11.11231        -2.60749
   O       -7.61526       -12.14901        -3.16552
   C       -9.17818       -10.50936        -2.27456
   C       -8.93241        -9.28029        -1.62898
   C      -10.21473        -8.72013        -1.25791
   O      -10.51365        -7.70180        -0.67397
   N      -11.16280        -9.66420        -1.71151
   C      -12.57065        -9.36358        -1.58691
   C      -13.19365        -8.98232        -2.92639
   C      -10.55649       -10.73704        -2.31897
   C      -11.11880       -11.91408        -2.87047
   C      -12.40864       -12.33669        -2.83789
   C      -12.85117       -13.56212        -3.38708
   S      -11.79654       -14.61158        -4.29413
   C      -14.13482       -14.09607        -3.29222
   C      -15.25573       -13.45063        -2.57796
   O      -15.16968       -12.38281        -1.99252
   C      -16.47403       -14.23849        -2.63498
   C      -17.71151       -13.96605        -2.09111
   N      -18.54788       -14.98918        -2.38226
   C      -19.94746       -15.04171        -2.04091
   C      -20.80186       -14.40008        -3.13189
   C      -17.88983       -15.91788        -3.11458
   C      -16.58994       -15.49704        -3.29487
   C      -15.50206       -16.13541        -4.01266
   O      -15.59241       -17.19379        -4.60767
   C      -14.25267       -15.34981        -3.93866
   C      -13.07559       -15.76333        -4.54460
   C      -12.85503       -16.99365        -5.22357
   C      -12.01972       -17.23377        -6.26410
   C      -11.58648       -18.62927        -6.56865
   O      -12.05467       -19.64798        -6.12279
   C      -10.42417       -18.48033        -7.46889
   C       -9.58892       -19.44556        -7.95326
   C       -8.51465       -19.06781        -8.78931
   C       -8.32005       -17.69005        -9.09948
   C       -7.24136       -17.32012        -9.92804
   C       -6.39918       -18.27268       -10.42859
   C       -6.59403       -19.63502       -10.12314
   C       -7.62890       -20.02562        -9.32065
   F       -5.75209       -20.54674       -10.62766
   F       -5.37613       -17.91981       -11.21753
   C       -9.20347       -16.71301        -8.58727
   C      -10.24667       -17.10418        -7.79086
   C      -11.32264       -16.33918        -7.16852
   C      -11.74486       -15.09911        -7.56509
   C      -12.94649       -14.50000        -7.13128
   N      -13.93393       -13.98964        -6.84520
   C      -11.07593       -14.31580        -8.52889
   N      -10.56535       -13.63880        -9.30187
   H        3.60947        -3.29193         3.15503
   H        2.68417        -7.34807         0.45900
   H        1.22135        -2.82564         3.31819
   H        0.23557        -6.88294         0.58905
   H       -4.17725        -2.77153         2.30099
   H       -8.46503        -1.63514         0.24494
   H       -8.84599        -2.38714         1.78078
   H       -8.49787        -6.73828        -0.60370
   H       -5.75786        -8.10280        -0.90664
   H       -5.02848        -9.52728        -2.54878
   H       -5.43206       -11.19247        -3.02793
   H       -5.07360       -10.26855        -0.12595
   H       -3.89352       -11.18246        -1.07096
   H       -5.45067       -11.90832        -0.66346
   H      -12.62480        -8.50975        -0.90464
   H      -13.09764       -10.20331        -1.12899
   H      -12.71743        -8.08603        -3.31668
   H      -14.25241        -8.78411        -2.78929
   H      -13.08285        -9.78075        -3.65593
   H      -10.37654       -12.55269        -3.33853
   H      -13.19124       -11.76846        -2.35940
   H      -18.02720       -13.11606        -1.51921
   H      -20.09386       -14.51714        -1.09336
   H      -20.23330       -16.08829        -1.90933
   H      -20.52554       -13.35717        -3.26545
   H      -21.85176       -14.45090        -2.85854
   H      -20.66128       -14.91839        -4.07714
   H      -18.36374       -16.81621        -3.45729
   H      -13.39190       -17.85348        -4.83170
   H       -9.74659       -20.48358        -7.70300
   H       -7.08018       -16.28229       -10.17441
   H       -7.76436       -21.07198        -9.09602
   H       -9.02860       -15.67663        -8.82857
*
