# ORCA input file
# SCF done       -225.378725693878          0.000744200867
! CAM-B3LYP def2-SVP def2/J RIJCOSX Grid4 TightSCF
%maxcore 5000
%tddft
    Mode sTDDFT
    Ethresh 5.0
    maxcore 5000
end

%pal
  nprocs 6
  end
* xyz 0 1
   C        0.03902         1.84978         1.35676
   C        1.37934         1.70025         1.13525
   F        2.18757         2.76630         1.15639
   C        1.92750         0.42587         0.88150
   F        3.24337         0.31112         0.66749
   C        1.12658        -0.68143         0.85111
   C       -0.25904        -0.55952         1.07243
   C       -0.81393         0.72782         1.33286
   C       -2.20015         0.87384         1.56559
   C       -3.00777        -0.23349         1.53952
   C       -2.44625        -1.51290         1.26716
   C       -1.11098        -1.68520         1.03756
   C       -3.50802        -2.52985         1.27724
   O       -3.40183        -3.69637         0.96425
   C       -4.76204        -1.79804         1.61615
   C       -4.44140        -0.38741         1.75909
   C       -5.30876         0.61055         2.11315
   C       -4.93658         1.96392         2.26763
   N       -4.70007         3.07878         2.39898
   C       -6.68334         0.43301         2.38109
   N       -7.80314         0.35934         2.62237
   C       -6.00381        -2.35586         1.61990
   C       -6.26424        -3.75092         1.67467
   S       -7.66588        -4.43608         0.91813
   C       -7.24308        -6.04961         1.41379
   C       -6.06765        -6.03470         2.16221
   C       -5.53985        -4.74302         2.32380
   O       -4.50586        -4.41890         3.13111
   C       -3.55772        -5.28013         3.53297
   O       -2.68191        -4.89550         4.25147
   C       -3.60484        -6.74068         3.10417
   O       -2.64482        -7.45030         3.18147
   S       -5.17431        -7.45435         2.64743
   C       -8.04919        -7.19041         1.15345
   N       -8.85802        -7.37927         0.06188
   C       -8.95384        -6.54931        -1.11522
   C       -7.67171        -6.57727        -1.94072
   C       -9.53453        -8.62187         0.12149
   O      -10.28073        -9.01880        -0.74450
   C       -9.11360        -9.18925         1.38151
   C       -8.19649        -8.29871         1.98497
   C       -7.87303        -8.82981         3.29039
   O       -7.16027        -8.40526         4.17726
   N       -8.58995       -10.03676         3.37448
   C       -8.49134       -10.83811         4.57248
   C       -9.63949       -10.56147         5.54024
   C       -9.35236       -10.25447         2.24982
   C      -10.23622       -11.31462         1.93000
   C      -10.65161       -12.35981         2.68954
   C      -11.55567       -13.34496         2.22400
   S      -12.21444       -13.40915         0.62722
   C      -13.18823       -14.80441         0.99829
   C      -12.96591       -15.21436         2.31226
   C      -12.05173       -14.40149         2.98934
   O      -11.63937       -14.53993         4.27657
   C      -12.00449       -15.52041         5.11469
   O      -11.59769       -15.50938         6.24021
   C      -12.90557       -16.66526         4.66358
   O      -13.15670       -17.57939         5.39095
   S      -13.63281       -16.66558         3.03481
   C      -13.98290       -15.36544        -0.02650
   C      -15.09957       -16.14231         0.03150
   C      -15.47291       -16.92933        -1.18592
   O      -14.99560       -16.80997        -2.28801
   C      -16.49034       -17.89194        -0.72707
   C      -17.07213       -18.91849        -1.41397
   C      -18.01595       -19.73749        -0.75454
   C      -18.33406       -19.47902         0.61088
   C      -19.27115       -20.30399         1.26441
   C      -19.86751       -21.33471         0.59325
   C      -19.55314       -21.58865        -0.75750
   C      -18.64666       -20.80756        -1.41839
   F      -20.15170       -22.60538        -1.38930
   F      -20.75904       -22.11545         1.21388
   C      -17.71946       -18.40496         1.29470
   C      -16.81607       -17.61794         0.63220
   C      -16.05894       -16.44745         1.06676
   C      -16.37038       -15.66309         2.14818
   C      -15.75904       -14.42345         2.41437
   N      -15.27449       -13.41082         2.65499
   C      -17.39296       -15.96647         3.07202
   N      -18.20484       -16.16792         3.85696
   H       -0.36312         2.83170         1.55181
   H        1.56099        -1.64950         0.65689
   H       -2.58837         1.86094         1.75770
   H       -0.71121        -2.66809         0.84020
   H       -6.87817        -1.72115         1.55452
   H       -9.21027        -5.52578        -0.82885
   H       -9.77900        -6.96848        -1.69838
   H       -6.83025        -6.18375        -1.37533
   H       -7.80103        -5.97347        -2.83397
   H       -7.44258        -7.59688        -2.24052
   H       -7.54771       -10.55300         5.04720
   H       -8.43634       -11.89361         4.29819
   H       -9.58470        -9.53364         5.88982
   H       -9.56461       -11.22368         6.39810
   H      -10.60599       -10.71039         5.06424
   H      -10.63391       -11.23243         0.92427
   H      -10.33835       -12.49908         3.71201
   H      -13.61914       -15.18546        -1.03505
   H      -16.81570       -19.10388        -2.44579
   H      -19.52521       -20.12207         2.29691
   H      -18.41684       -21.01538        -2.45162
   H      -17.97041       -18.23868         2.33001
*
