# ORCA input file
# SCF done       -249.989266893650          0.000763663219
! CAM-B3LYP def2-SVP def2/J RIJCOSX Grid4 TightSCF
%maxcore 5000
%tddft
    Mode sTDDFT
    Ethresh 5.0
    maxcore 5000
end

%pal
  nprocs 6
  end
* xyz 0 1
   C       -7.86909         0.09196        -1.15179
   C       -9.04092         0.37016        -0.50561
   F       -9.39149         1.63879        -0.26239
   C       -9.89395        -0.67134        -0.08768
   F      -11.03630        -0.37062         0.54388
   C       -9.56276        -1.97656        -0.32121
   C       -8.36130        -2.29583        -0.98342
   C       -7.49910        -1.24347        -1.40858
   C       -6.29112        -1.54010        -2.08009
   C       -5.95759        -2.84731        -2.31648
   C       -6.81739        -3.89411        -1.87799
   C       -7.99136        -3.63669        -1.22956
   C       -6.22183        -5.20003        -2.21909
   O       -6.66500        -6.29442        -1.93514
   C       -4.92972        -4.88321        -2.87407
   C       -4.81216        -3.44408        -2.99213
   C       -3.85979        -2.78029        -3.71738
   C       -2.88697        -3.43196        -4.50602
   N       -2.11843        -3.91287        -5.20947
   C       -3.78523        -1.37599        -3.82266
   N       -3.68125        -0.23813        -3.92862
   C       -3.94733        -5.80143        -3.09715
   C       -4.14558        -7.20669        -3.10042
   C       -3.35144        -8.16493        -2.47229
   N       -2.21434        -7.90276        -1.69278
   O       -1.92253        -6.73480        -1.48084
   O       -1.58368        -8.85667        -1.27291
   C       -3.92657        -9.45873        -2.66094
   C       -5.07641        -9.31182        -3.37912
   C       -5.25519        -7.92607        -3.69967
   C       -6.17241        -7.39649        -4.60570
   C       -5.94112        -6.32688        -5.49800
   C       -6.97435        -6.26459        -6.40786
   C       -7.92644        -7.25893        -6.09381
   N       -9.07300        -7.49596        -6.84434
   O       -9.37715        -6.68997        -7.70855
   O       -9.70783        -8.53111        -6.63298
   C       -7.50073        -7.94579        -4.92636
   C       -8.28775        -8.76544        -4.13221
   C       -7.98781        -9.12049        -2.82497
   C       -8.65354       -10.01095        -1.99074
   C       -8.40552        -9.99859        -0.59692
   C       -9.27307       -10.86264         0.04790
   O       -9.36148       -11.13495         1.34779
   C       -8.44165       -10.49712         2.21638
   C      -10.10374       -11.50237        -0.93689
   C       -9.73692       -10.96181        -2.22528
   C      -10.35415       -11.29972        -3.41972
   C       -9.82823       -11.31927        -4.73272
   C      -10.82573       -11.73398        -5.59028
   O      -10.82542       -11.94894        -6.88330
   C       -9.67180       -11.58944        -7.62303
   C      -12.05949       -11.93368        -4.81380
   C      -11.77562       -11.70486        -3.52671
   C      -10.94862       -12.59867        -0.73348
   C      -11.32079       -13.11680         0.48586
   C      -12.18534       -14.21162         0.63313
   C      -12.54659       -14.80468         1.84017
   C      -13.40954       -15.89339         1.58927
   C      -13.60644       -15.93151         0.12616
   C      -12.87026       -14.93776        -0.42943
   C      -14.42312       -16.81664        -0.58820
   N      -15.09795       -17.51163        -1.20458
   C      -13.89577       -16.81569         2.49718
   C      -14.59505       -18.02336         2.20862
   C      -14.67086       -18.78587         3.35645
   C      -14.09698       -18.01587         4.44092
   C      -13.63581       -16.83247         3.94062
   C      -12.97686       -15.85644         4.69304
   N      -12.39770       -15.09550         5.33088
   C      -15.07866       -20.15196         3.43685
   C      -14.44736       -21.09158         4.18761
   C      -13.22109       -20.93683         4.89069
   C      -12.15556       -20.11266         4.66599
   C      -11.22340       -19.84965         5.80697
   O      -11.13763       -20.49013         6.82686
   C      -10.50700       -18.61230         5.44149
   C       -9.69530       -17.83027         6.21166
   C       -9.17723       -16.63410         5.66670
   C       -9.49470       -16.28396         4.32297
   C       -8.99810       -15.07746         3.79181
   C       -8.22361       -14.25823         4.56247
   C       -7.90519       -14.60516         5.88966
   C       -8.36937       -15.77078         6.43153
   F       -7.14116       -13.77784         6.61528
   F       -7.75786       -13.10394         4.05674
   C      -10.31755       -17.12603         3.54256
   C      -10.82865       -18.26704         4.09895
   C      -11.75205       -19.26637         3.56518
   C      -12.05030       -19.44052         2.23668
   C      -12.77465       -20.54513         1.74534
   N      -13.33593       -21.44571         1.31014
   C      -11.59683       -18.58534         1.21391
   N      -11.28535       -17.88655         0.35743
   H       -7.22836         0.90072        -1.46671
   H      -10.22685        -2.76139         0.00552
   H       -5.65473        -0.72522        -2.38578
   H       -8.63087        -4.44527        -0.90915
   H       -2.92321        -5.46322        -3.21108
   H       -3.49677       -10.36588        -2.28175
   H       -5.70594       -10.10237        -3.74025
   H       -5.04067        -5.74358        -5.53691
   H       -7.05599        -5.59720        -7.24555
   H       -9.24481        -9.05748        -4.54431
   H       -7.18370        -8.57313        -2.34840
   H       -7.66854        -9.36728        -0.13725
   H       -8.67136       -10.85933         3.21529
   H       -8.55793        -9.41128         2.18031
   H       -7.41381       -10.76554         1.96262
   H       -8.80046       -11.15609        -4.98676
   H       -9.90925       -11.78060        -8.66712
   H       -8.81105       -12.19167        -7.32177
   H       -9.45605       -10.52921        -7.47317
   H      -12.99916       -12.19300        -5.26049
   H      -12.47252       -11.66589        -2.71220
   H      -11.31481       -13.09006        -1.62255
   H      -10.94433       -12.66573         1.39216
   H      -12.20687       -14.49728         2.81039
   H      -12.80770       -14.72135        -1.47912
   H      -14.92707       -18.32649         1.23471
   H      -14.09050       -18.31396         5.47311
   H      -15.92837       -20.44589         2.83540
   H      -14.91477       -22.06269         4.28576
   H      -13.11207       -21.55464         5.77931
   H       -9.46697       -18.11014         7.22872
   H       -9.23212       -14.79680         2.77641
   H       -8.12095       -16.02151         7.45076
   H      -10.55004       -16.82831         2.53241
*
