# ORCA input file
# SCF done       -228.986236399182          0.000474477367
! CAM-B3LYP def2-SVP def2/J RIJCOSX Grid4 TightSCF
%maxcore 5000
%tddft
    Mode sTDDFT
    Ethresh 5.0
    maxcore 5000
end

%pal
  nprocs 6
  end
* xyz 0 1
   C       -7.60878        -1.87798         9.60009
   C       -7.68460        -2.52373        10.80237
   F       -7.90695        -1.83081        11.92577
   C       -7.53117        -3.92317        10.87610
   F       -7.61096        -4.52931        12.06751
   C       -7.30394        -4.65750         9.74591
   C       -7.22153        -4.02125         8.49203
   C       -7.37622        -2.60627         8.41604
   C       -7.30097        -1.94517         7.16849
   C       -7.08194        -2.67703         6.03112
   C       -6.93343        -4.09046         6.11736
   C       -6.99484        -4.75653         7.30758
   C       -6.73940        -4.63722         4.76525
   O       -6.51450        -5.79610         4.47106
   C       -6.85229        -3.49652         3.84350
   C       -6.96838        -2.27984         4.62931
   C       -6.93224        -0.99124         4.17004
   C       -7.03608         0.14433         5.00258
   N       -7.11753         1.10423         5.62600
   C       -6.74630        -0.60607         2.82410
   N       -6.57821        -0.21264         1.75927
   C       -6.91363        -3.60103         2.48265
   C       -6.88579        -4.76253         1.68441
   C       -7.07526        -4.69894         0.30057
   F       -7.28787        -3.54706        -0.33796
   C       -7.04642        -5.93031        -0.34041
   F       -7.27623        -6.05823        -1.65242
   C       -6.83249        -6.98747         0.53477
   S       -6.67929        -6.42048         2.17241
   C       -6.78646        -8.39759         0.32003
   N       -6.33354        -9.07455        -0.78855
   C       -5.63710        -8.54182        -1.93798
   C       -4.31468        -7.88694        -1.55220
   C       -6.44647       -10.46485        -0.61895
   O       -6.09113       -11.27365        -1.46261
   C       -7.03269       -10.63305         0.68629
   C       -7.20733        -9.34280         1.24651
   C       -7.85828        -9.49359         2.53290
   O       -8.22920        -8.69339         3.36125
   N       -8.00690       -10.88963         2.67622
   C       -8.66759       -11.45685         3.82693
   C      -10.11825       -11.82137         3.52145
   C       -7.53215       -11.57537         1.58882
   C       -7.56679       -12.98541         1.44743
   C       -7.12951       -13.56108         0.30073
   C       -7.12222       -14.94427         0.00708
   S       -7.34985       -16.17605         1.19964
   C       -7.13293       -17.44306         0.02747
   C       -6.86269       -16.90855        -1.22769
   C       -6.88241       -15.50490        -1.24298
   C       -6.75975       -14.69553        -2.49072
   N       -8.07997       -14.00183        -2.78863
   O       -8.72855       -13.61184        -1.85714
   O       -8.35805       -13.86701        -3.94978
   C       -6.34792       -15.52486        -3.70850
   C       -5.53747       -16.74806        -3.30343
   C       -6.40167       -17.66899        -2.43153
   N       -5.54591       -18.81829        -2.04297
   O       -5.75991       -19.87064        -2.59697
   O       -4.67774       -18.61546        -1.23347
   C       -7.19246       -18.77710         0.51033
   C       -7.52420       -19.95432        -0.08203
   C       -7.12270       -21.21768         0.61677
   O       -6.73720       -21.30935         1.75644
   C       -7.26641       -22.27977        -0.39355
   C       -6.90033       -23.59255        -0.31486
   C       -7.11106       -24.43063        -1.43236
   C       -7.69346       -23.88761        -2.61484
   C       -7.89440       -24.72870        -3.72778
   C       -7.53707       -26.04653        -3.66891
   C       -6.96192       -26.58249        -2.49877
   C       -6.75266       -25.79245        -1.40320
   F       -6.62119       -27.87726        -2.46985
   F       -7.73135       -26.84465        -4.72618
   C       -8.06554       -22.52520        -2.66549
   C       -7.86030       -21.73478        -1.56702
   C       -8.14992       -20.32400        -1.33236
   C       -9.02723       -19.56135        -2.06029
   C       -9.43817       -18.27164        -1.67119
   N       -9.78264       -17.21635        -1.37931
   C       -9.67125       -20.00609        -3.23422
   N      -10.20622       -20.30264        -4.20472
   H       -7.72806        -0.80645         9.56174
   H       -7.18956        -5.72765         9.81869
   H       -7.42704        -0.87496         7.14551
   H       -6.87982        -5.82908         7.34129
   H       -7.03902        -2.68935         1.90886
   H       -6.27391        -7.84129        -2.47861
   H       -5.45005        -9.40399        -2.58454
   H       -4.47490        -7.01561        -0.92154
   H       -3.79336        -7.56996        -2.45078
   H       -3.68571        -8.59299        -1.01440
   H       -8.63690       -10.68713         4.60299
   H       -8.10975       -12.33119         4.17320
   H      -10.66874       -10.93215         3.22491
   H      -10.58686       -12.24033         4.40747
   H      -10.17727       -12.54867         2.71501
   H       -7.97248       -13.58867         2.24656
   H       -6.75641       -12.91135        -0.47832
   H       -6.06838       -13.85832        -2.32727
   H       -5.76921       -14.91137        -4.39811
   H       -7.24501       -15.85082        -4.24053
   H       -4.65425       -16.45008        -2.73325
   H       -5.21283       -17.28505        -4.19604
   H       -7.23192       -18.07702        -3.02181
   H       -6.89079       -18.88822         1.54961
   H       -6.45306       -23.98507         0.58558
   H       -8.33509       -24.33544        -4.63049
   H       -6.31060       -26.21757        -0.51574
   H       -8.48856       -22.13656        -3.57764
*
