# ORCA input file
# SCF done       -162.117511551978          0.000905019650
! CAM-B3LYP def2-SVP def2/J RIJCOSX Grid4 TightSCF
%maxcore 5000
%tddft
    Mode sTDDFT
    Ethresh 5.0
    maxcore 5000
end

%pal
  nprocs 6
  end
* xyz 0 1
   C        0.74201         0.75301         6.21126
   O        0.27011        -0.48161         6.31975
   C        0.54223        -1.13471         5.15532
   C        1.20225        -0.28495         4.29526
   C        1.33430         0.94993         4.98119
   C        1.95807         2.17547         4.49728
   O        2.46168         2.31906         3.41537
   C        0.13069        -2.49123         5.00579
   C        0.29564        -3.30241         3.91010
   C       -0.30661        -4.56541         4.17942
   C       -0.83124        -4.48925         5.55736
   C       -0.56180        -3.24793         6.03825
   C       -1.40788        -5.52575         6.30207
   N       -1.84448        -6.34895         6.97342
   C       -0.41782        -5.64319         3.32947
   C       -1.17186        -6.82854         3.53510
   C       -1.01040        -7.67048         2.44772
   C       -0.11558        -7.00862         1.50934
   C        0.22104        -5.79098         2.01149
   C        1.06250        -4.87053         1.37675
   N        1.75568        -4.13824         0.82657
   C       -1.66823        -8.92140         2.32934
   N       -1.36402        -9.96009         1.48671
   C       -0.23719       -10.09618         0.59254
   C        1.09013       -10.15326         1.34117
   C       -2.23684       -11.05535         1.66861
   O       -2.15106       -12.08560         1.03605
   C       -3.15856       -10.61677         2.69369
   C       -2.78742        -9.31463         3.07915
   C       -3.76099        -8.83904         4.04678
   O       -3.88943        -7.78530         4.62878
   N       -4.64397        -9.92352         4.20464
   C       -5.77199        -9.83952         5.10124
   C       -7.07374        -9.56025         4.35451
   C       -4.30791       -10.98960         3.40816
   C       -5.02874       -12.19906         3.37703
   C       -4.64430       -13.26647         2.61826
   C       -5.34593       -14.49500         2.53970
   C       -4.78314       -15.56621         1.79230
   C       -5.43924       -16.83691         1.65712
   N       -4.96123       -17.74390         0.78825
   C       -3.81085       -17.52476         0.21102
   C       -3.05621       -16.33674         0.50534
   N       -3.58173       -15.38341         1.22841
   C       -1.75378       -16.17257        -0.02891
   N       -0.70488       -16.08711        -0.48075
   C       -3.32635       -18.46282        -0.73531
   N       -2.90772       -19.20800        -1.49755
   C       -6.61553       -17.13734         2.37139
   C       -7.20241       -16.08015         3.08618
   C       -6.58521       -14.77236         3.16530
   N       -7.31781       -13.93802         3.90607
   S       -8.61994       -14.71032         4.44615
   N       -8.33901       -16.13777         3.78467
   C       -7.16546       -18.46428         2.37827
   O       -8.49427       -18.63900         2.40303
   C       -8.73571       -19.95888         2.38455
   C       -7.57483       -20.66539         2.35633
   C       -6.52595       -19.70442         2.36096
   C       -5.11370       -20.01104         2.49953
   O       -4.24054       -19.23656         2.81025
   H        0.61175         1.41232         7.04802
   H        1.55175        -0.50002         3.30722
   H        1.93232         2.99863         5.23942
   H        0.76492        -3.03262         2.98551
   H       -0.79943        -2.86757         7.01394
   H       -1.78676        -7.02049         4.39168
   H        0.20140        -7.38709         0.55710
   H       -0.24491        -9.28911        -0.14429
   H       -0.40076       -11.04064         0.06422
   H        1.26701        -9.24038         1.90603
   H        1.90227       -10.28664         0.63210
   H        1.09169       -10.99372         2.03098
   H       -5.55402        -9.01155         5.78167
   H       -5.84649       -10.76439         5.67923
   H       -6.99312        -8.62510         3.80585
   H       -7.89148        -9.47592         5.06463
   H       -7.30089       -10.35863         3.65184
   H       -5.91684       -12.28334         3.98528
   H       -3.74209       -13.21239         2.02262
   H       -9.76272       -20.26707         2.38960
   H       -7.46190       -21.72979         2.34870
   H       -4.88773       -21.08040         2.32780
*
