# ORCA input file
# SCF done       -179.824583305989          0.000670586706
! CAM-B3LYP def2-SVP def2/J RIJCOSX Grid4 TightSCF
%maxcore 5000
%tddft
    Mode sTDDFT
    Ethresh 5.0
    maxcore 5000
end

%pal
  nprocs 6
  end
* xyz 0 1
   C       -0.46225        -0.45192        -0.24380
   C       -0.42555        -1.02962        -1.49015
   C       -1.75024        -1.14554        -1.97294
   O       -2.18358        -1.69890        -3.09479
   C       -1.23809        -2.23452        -3.99997
   C       -2.63785        -0.57154        -1.01655
   C       -1.80347        -0.10478         0.09338
   C       -2.18227         0.50611         1.27194
   C       -1.40558         0.57335         2.45686
   C       -2.15423         1.19704         3.42598
   O       -1.92637         1.41751         4.69860
   C       -0.79697         0.79814         5.28321
   C       -3.42372         1.64449         2.82102
   C       -3.45181         1.21129         1.55628
   C       -4.01111        -0.70479        -0.99091
   C       -4.82857        -1.26128        -1.99496
   C       -6.05540        -1.80151        -1.70776
   C       -7.17519        -2.04224        -2.55646
   N       -7.19052        -1.98522        -3.94866
   O       -8.25445        -2.17266        -4.51907
   O       -6.13534        -1.75964        -4.53284
   C       -8.29005        -2.26462        -1.74290
   C       -7.91109        -2.21903        -0.39778
   C       -6.53697        -2.02066        -0.32599
   C       -5.62128        -2.07511         0.74178
   C       -4.30245        -2.66032         0.61321
   C       -3.64292        -2.48560         1.78545
   C       -4.49840        -1.77352         2.68624
   N       -4.01028        -1.33163         3.91047
   O       -4.75669        -0.81422         4.73033
   O       -2.80230        -1.45514         4.11153
   C       -5.75050        -1.56223         2.07065
   C       -6.95052        -0.88088         2.46558
   C       -7.37671        -0.55265         3.68868
   C       -8.73298         0.07591         3.87427
   C       -9.39091        -0.11768         5.22950
   O       -9.20710         0.28779         6.32796
   C       -9.86680        -0.73222         3.25872
   O      -10.17805        -1.03099         2.15008
   C      -10.48635        -1.04480         4.63207
   C      -11.89107        -0.66207         4.85184
   S      -12.51528         0.80698         4.20515
   C      -14.08203         0.52321         4.90986
   C      -14.09165        -0.65987         5.62003
   C      -12.84425        -1.33897         5.58444
   C      -12.56005        -2.58342         6.18469
   N      -12.27318        -3.60064         6.62525
   C      -15.26834        -1.17193         6.39173
   F      -15.86669        -0.19826         7.10428
   F      -16.22122        -1.68723         5.58845
   F      -14.94780        -2.12765         7.26086
   C      -15.13781         1.46487         4.66667
   S      -16.81373         1.01747         4.63301
   C      -17.28953         2.60780         4.23935
   C      -16.22844         3.45474         4.13098
   C      -14.98317         2.81063         4.36614
   C      -13.75444         3.49625         4.32375
   N      -12.76471         4.07281         4.28755
   C      -16.33581         4.90953         3.79809
   F      -17.60700         5.28240         3.59792
   F      -15.85242         5.69192         4.77384
   F      -15.66115         5.22391         2.68176
   H        0.39408        -0.23952         0.36726
   H        0.46045        -1.35621        -2.00183
   H       -1.81577        -2.60967        -4.84245
   H       -0.67858        -3.05493        -3.54268
   H       -0.54262        -1.46494        -4.34455
   H       -0.45345         0.10219         2.59009
   H       -0.81102         1.07139         6.33605
   H        0.12791         1.14790         4.81680
   H       -0.88201        -0.28629         5.17373
   H       -4.16626         2.19845         3.36138
   H       -4.21127         1.42384         0.82987
   H       -4.52233        -0.29664        -0.13206
   H       -4.50472        -1.23269        -3.02733
   H       -9.28196        -2.44904        -2.11260
   H       -8.56825        -2.40985         0.42928
   H       -3.97948        -3.24101        -0.22919
   H       -2.65473        -2.81401         2.04099
   H       -7.60735        -0.66729         1.63038
   H       -6.80632        -0.73539         4.58372
   H       -8.70822         1.12220         3.55379
   H      -10.32500        -2.08511         4.93419
   H      -18.32618         2.84900         4.10786
*
