# ORCA input file
# SCF done       -181.598376323422          0.000751990050
! CAM-B3LYP def2-SVP def2/J RIJCOSX Grid4 TightSCF
%maxcore 5000
%tddft
    Mode sTDDFT
    Ethresh 5.0
    maxcore 5000
end

%pal
  nprocs 6
  end
* xyz 0 1
   C      -12.19580         0.50299         2.83015
   C      -12.55017         0.64627         4.11630
   C      -12.40173         1.93199         4.74462
   C      -12.75120         2.16184         6.06097
   C      -12.60033         3.42847         6.64798
   N      -12.47207         4.47256         7.11082
   C      -13.27882         1.14864         6.87683
   N      -13.70906         0.31427         7.53901
   C      -11.86744         2.96057         3.90973
   C      -11.53803         2.72535         2.61057
   O      -11.70339         1.48838         2.06457
   C      -10.99552         3.71232         1.68481
   C      -10.80474         5.04751         2.07152
   C      -10.28141         5.94684         1.17430
   C       -9.98800         5.54595        -0.14159
   C      -10.17595         4.22850        -0.53553
   C      -10.66667         3.32172         0.38019
   C       -9.52731         6.69560        -0.88294
   C       -9.53627         7.81485        -0.03104
   C      -10.00173         7.42537         1.35930
   C       -8.82763         7.68089         2.32940
   C       -9.04902         7.26741         3.77847
   C      -11.31888         8.11245         1.77523
   C      -11.26278         9.62373         1.95652
   C       -9.09130         9.02866        -0.49455
   C       -8.66008         9.16494        -1.82654
   C       -8.68560         8.03893        -2.66472
   C       -9.10753         6.81226        -2.20185
   C       -8.20691        10.45460        -2.27097
   C       -7.59594        10.73608        -3.44901
   C       -7.16509        12.02774        -3.81572
   C       -6.48361        12.31055        -4.96702
   C       -6.00272        13.57765        -5.39228
   C       -5.31965        13.55606        -6.56552
   C       -5.21561        12.26791        -7.14877
   S       -6.04161        11.08546        -6.15168
   C       -4.55850        11.90800        -8.29998
   C       -3.79187        12.73711        -9.16250
   C       -3.19903        12.08081       -10.18652
   C       -3.46225        10.67503       -10.21345
   S       -4.53908        10.24820        -8.87388
   C       -2.99032         9.75226       -11.07693
   C       -3.40585         8.34048       -11.01801
   C       -2.92597         7.38530       -10.11531
   N       -1.89546         7.44139        -9.19522
   C       -1.02363         8.57906        -9.02856
   C       -1.26755         9.32372        -7.71784
   C       -1.81560         6.23255        -8.53920
   C       -2.81983         5.37190        -9.05339
   C       -3.50736         6.09786       -10.07833
   C       -4.53247         5.73773       -10.94153
   C       -4.96755         6.66725       -11.86176
   C       -4.41113         7.93989       -11.89183
   C       -3.00716         4.08796        -8.56702
   C       -2.19454         3.65051        -7.53958
   C       -1.21925         4.48422        -7.01980
   C       -0.98496         5.77976        -7.49444
   C        0.09243         6.54241        -6.89669
   C        0.46200         6.45015        -5.60437
   C        1.54654         7.20124        -5.03371
   C        1.89118         7.11989        -3.71685
   C        2.96719         7.88908        -3.18309
   C        3.34031         7.82733        -1.85464
   C        4.40136         8.59422        -1.34762
   N        5.26980         9.22661        -0.94008
   C        2.67697         6.99401        -0.93940
   N        2.12738         6.30968        -0.19789
   C        3.63842         8.73954        -4.13319
   C        3.22992         8.75565        -5.41053
   O        2.21397         8.02076        -5.89403
   H      -12.27494        -0.42555         2.28399
   H      -12.94183        -0.18449         4.67933
   H      -11.73181         3.93747         4.34206
   H      -11.08019         5.36792         3.06194
   H       -9.94727         3.91717        -1.54342
   H      -10.81273         2.29364         0.08774
   H       -8.58981         8.74519         2.29475
   H       -7.95851         7.14395         1.93917
   H       -9.93243         7.73971         4.19917
   H       -8.19017         7.57306         4.37240
   H       -9.14706         6.18915         3.86750
   H      -11.65541         7.65865         2.70865
   H      -12.06647         7.87680         1.01267
   H      -10.49920         9.90976         2.67472
   H      -12.22287         9.97449         2.32955
   H      -11.06876        10.12392         1.01220
   H       -9.04438         9.89113         0.15317
   H       -8.36970         8.13320        -3.69176
   H       -9.10809         5.95231        -2.85503
   H       -8.35591        11.26937        -1.57199
   H       -7.39354         9.94850        -4.16243
   H       -7.37281        12.84962        -3.14285
   H       -6.17766        14.46239        -4.80543
   H       -4.88536        14.42327        -7.03009
   H       -3.69859        13.79404        -8.98610
   H       -2.57423        12.54031       -10.93210
   H       -2.39302        10.07465       -11.92067
   H       -1.21217         9.25394        -9.86713
   H        0.01812         8.25255        -9.10258
   H       -2.29534         9.67097        -7.67147
   H       -0.60431        10.18267        -7.65456
   H       -1.08914         8.67892        -6.86133
   H       -4.96681         4.75128       -10.89413
   H       -5.75361         6.41833       -12.55825
   H       -4.78540         8.66335       -12.60187
   H       -3.77302         3.45324        -8.98468
   H       -2.31085         2.65500        -7.13932
   H       -0.57727         4.10608        -6.23910
   H        0.65501         7.21131        -7.52871
   H       -0.07350         5.81882        -4.91203
   H        1.34064         6.46168        -3.06346
   H        4.46192         9.35452        -3.81000
   H        3.68236         9.36530        -6.17873
*
