# ORCA input file
# SCF done       -201.137411515826          0.000738997635
! CAM-B3LYP def2-SVP def2/J RIJCOSX Grid4 TightSCF
%maxcore 5000
%tddft
    Mode sTDDFT
    Ethresh 5.0
    maxcore 5000
end

%pal
  nprocs 6
  end
* xyz 0 1
   C       -2.88493        -1.29998        -0.13068
   C       -3.42810        -2.53024        -0.39160
   C       -2.67391        -3.71370        -0.52980
   N       -2.10962        -4.70600        -0.65333
   C       -4.80278        -2.76575        -0.60697
   N       -5.89846        -3.02802        -0.82722
   C       -1.46612        -0.99027        -0.02795
   C       -1.31421         0.41586         0.07136
   C       -0.08441         1.01962         0.17862
   C        1.04833         0.20038         0.18300
   C        0.88625        -1.20277         0.08697
   C       -0.35705        -1.81503        -0.01793
   S        2.41902        -2.01580         0.12284
   C        3.24624        -0.50287         0.26002
   C        2.42063         0.56610         0.27976
   C       -2.63913         1.06087         0.07062
   O       -2.86293         2.24141         0.23426
   C       -3.62120        -0.05395        -0.02806
   C       -4.95913         0.08647         0.16526
   C       -5.65566         1.33168         0.07238
   C       -6.71389         1.64375         0.94789
   C       -7.35858         2.93446         0.93000
   N       -8.36441         3.18290         1.78571
   C       -8.71304         2.26465         2.65161
   C       -8.03650         0.99988         2.69964
   N       -7.07469         0.72024         1.85778
   C       -8.42138         0.03466         3.66408
   N       -8.75873        -0.71158         4.46494
   C       -9.77973         2.53234         3.54528
   N      -10.62984         2.72384         4.28908
   C       -6.98779         3.94359         0.01216
   C       -6.02252         3.57763        -0.94438
   C       -5.35842         2.29358        -0.90986
   N       -4.49300         2.15292        -1.91404
   S       -4.46782         3.50544        -2.76955
   N       -5.56786         4.33236        -1.95187
   C       -7.54378         5.28207         0.05956
   C       -7.77275         5.98568        -1.13349
   C       -8.26000         7.26553        -1.07581
   C       -8.51229         7.88536         0.16213
   C       -8.29530         7.19415         1.34660
   C       -7.82046         5.90065         1.28699
   C       -8.96732         9.23420        -0.08447
   C       -9.01629         9.44380        -1.47484
   C       -8.58397         8.20078        -2.21656
   C       -7.34577         8.46627        -3.09263
   C       -6.15903         8.99276        -2.29485
   C       -9.72357         7.64133        -3.08898
   C      -10.99260         7.35663        -2.29467
   C       -9.41425        10.65510        -1.98256
   C       -9.74084        11.70418        -1.10832
   C       -9.68994        11.47766         0.27426
   C       -9.31577        10.25477         0.79044
   C      -10.11315        12.98289        -1.66680
   C      -10.04903        14.16327        -1.02006
   C      -10.39461        15.42628        -1.58737
   S       -9.91438        16.88247        -0.73823
   C      -10.61160        17.88212        -1.97723
   C      -11.21071        17.09491        -2.98425
   C      -11.06947        15.71562        -2.74784
   C      -11.84894        17.77705        -4.04420
   C      -11.82978        19.17561        -4.05000
   S      -12.66802        19.79906        -5.43999
   C      -13.03282        18.19974        -5.97837
   C      -12.54596        17.24032        -5.16215
   C      -11.18888        19.95866        -3.05616
   C      -10.58860        19.26432        -2.00247
   C      -11.19526        21.37817        -3.18448
   C      -10.49384        22.32459        -2.49546
   C      -10.57815        23.72490        -2.75264
   C       -9.75499        24.49391        -1.99841
   C       -8.95740        23.75857        -1.08446
   S       -9.31516        22.04720        -1.22006
   C       -8.02170        24.23382        -0.19938
   C       -7.63580        25.58889         0.00948
   C       -6.67654        25.75632         0.94514
   C       -6.22397        24.53860         1.55632
   S       -7.10787        23.17367         0.85523
   C       -5.28892        24.39439         2.50464
   H       -0.00034         2.09267         0.25569
   H       -0.43113        -2.88812        -0.07910
   H        4.31728        -0.50824         0.31951
   H        2.75559         1.58436         0.36138
   H       -5.56056        -0.76601         0.45452
   H       -7.57615         5.50630        -2.07873
   H       -8.48248         7.66194         2.30123
   H       -7.62193         5.36571         2.20177
   H       -7.61348         9.18915        -3.86635
   H       -7.06220         7.53485        -3.58635
   H       -6.41524         9.92193        -1.79009
   H       -5.31806         9.18190        -2.95795
   H       -5.84975         8.26713        -1.54632
   H       -9.37817         6.72026        -3.56284
   H       -9.94403         8.36194        -3.87955
   H      -10.80163         6.62368        -1.51408
   H      -11.76529         6.96504        -2.95225
   H      -11.36652         8.26496        -1.82720
   H       -9.45784        10.82205        -3.04962
   H       -9.97122        12.27141         0.94903
   H       -9.29218        10.09576         1.85803
   H      -10.41510        12.96927        -2.70587
   H       -9.66947        14.20362        -0.00846
   H      -11.46471        14.95916        -3.40094
   H      -13.59549        18.07905        -6.88318
   H      -12.67351        16.18716        -5.33482
   H      -10.11798        19.79592        -1.19327
   H      -11.83003        21.76154        -3.97529
   H      -11.25067        24.10686        -3.50059
   H       -9.69028        25.56462        -2.07230
   H       -8.08757        26.39070        -0.54727
   H       -6.25893        26.70352         1.23713
   H       -4.77399        25.25058         2.90324
   H       -5.02410        23.42895         2.89510
*
