# ORCA input file
# SCF done       -186.057126209871          0.000405126118
! CAM-B3LYP def2-SVP def2/J RIJCOSX Grid4 TightSCF
%maxcore 5000
%tddft
    Mode sTDDFT
    Ethresh 5.0
    maxcore 5000
end

%pal
  nprocs 6
  end
* xyz 0 1
   C       -2.53632        -1.14395         0.60332
   C       -3.06840        -2.38188         0.34340
   C       -2.44815        -3.59893         0.69065
   N       -1.98786        -4.62275         0.93342
   C       -4.31454        -2.61197        -0.27508
   N       -5.32584        -2.88885        -0.74453
   C       -1.31292        -0.87970         1.34835
   C       -1.17153         0.52191         1.50521
   C       -0.11771         1.08758         2.18080
   C        0.84101         0.23111         2.73067
   C        0.69513        -1.16638         2.56286
   C       -0.36996        -1.73967         1.87820
   S        2.00150        -2.02845         3.31311
   C        2.71444        -0.54186         3.83725
   C        2.01369         0.55306         3.47064
   C       -2.28305         1.20962         0.82551
   O       -2.38570         2.40843         0.65689
   C       -3.14216         0.12951         0.27477
   C       -4.20178         0.32528        -0.56347
   C       -4.93098         1.53633        -0.69420
   C       -5.13759         2.43024         0.37901
   C       -5.79172         3.69733         0.18326
   N       -5.87264         4.55754         1.20677
   C       -5.35993         4.23867         2.37103
   C       -4.84699         2.92164         2.59379
   N       -4.77083         2.05863         1.61158
   C       -4.44266         2.52000         3.89006
   N       -4.09326         2.22480         4.94074
   C       -5.39139         5.18785         3.41978
   N       -5.40300         5.94024         4.28432
   C       -6.37292         4.07969        -1.05299
   C       -6.23645         3.14626        -2.10167
   C       -5.53266         1.89580        -1.91725
   N       -5.45467         1.19297        -3.04505
   S       -6.18066         2.00813        -4.22314
   N       -6.62283         3.29835        -3.37181
   C       -6.95249         5.38778        -1.17660
   S       -6.16514         6.68354        -0.29743
   C       -7.25661         7.83460        -0.92170
   C       -7.15230         9.25860        -0.50012
   C       -8.15616         9.57684         0.61267
   C       -8.26337         7.24712        -1.68555
   C       -8.06562         5.84379        -1.85046
   C       -8.97678         4.94980        -2.62977
   C       -9.88146         4.13242        -1.70427
   C       -9.32437         8.04189        -2.23515
   C      -10.60103         7.63566        -2.46165
   C      -11.59135         8.42678        -3.07114
   C      -12.86537         7.97047        -3.30756
   C      -13.92676         8.64024        -3.95954
   C      -15.07067         7.90468        -4.07126
   C      -14.98005         6.61720        -3.50435
   S      -13.38896         6.36193        -2.82790
   C      -15.95082         5.63196        -3.43443
   C      -17.26510         5.65129        -3.94414
   C      -17.96851         4.51091        -3.69164
   C      -17.25846         3.52574        -2.96156
   S      -15.63765         4.11529        -2.62710
   C      -17.76792         2.31403        -2.56339
   C      -17.15646         1.29630        -1.80584
   C      -17.79791         0.11586        -1.41062
   C      -16.89951        -0.65897        -0.64044
   C      -17.03860        -1.87556        -0.00758
   C      -15.93498        -2.37157         0.70351
   C      -15.76170        -3.53405         1.44113
   C      -14.43286        -3.55810         1.97171
   C      -13.78565        -2.40801         1.55817
   C      -14.68525        -1.63081         0.76333
   C      -14.53941        -0.42468         0.13601
   C      -15.65123         0.08275        -0.57369
   C      -15.81755         1.25593        -1.27891
   C      -13.84851        -4.58724         2.79747
   C      -14.46739        -5.68838         3.21493
   H       -0.03835         2.15857         2.28559
   H       -0.43477        -2.80990         1.77286
   H        3.62919        -0.58190         4.39608
   H        2.30309         1.56085         3.70776
   H       -4.52341        -0.47533        -1.21768
   H       -7.33764         9.91460        -1.35450
   H       -6.14127         9.44842        -0.13621
   H       -9.17284         9.39599         0.27106
   H       -8.06561        10.61787         0.91153
   H       -7.96485         8.94906         1.47950
   H       -8.37473         4.26658        -3.22794
   H       -9.57739         5.55005        -3.31239
   H       -9.28241         3.46382        -1.08933
   H      -10.57631         3.53577        -2.29036
   H      -10.45470         4.77634        -1.03980
   H       -9.07484         9.07335        -2.45329
   H      -10.91836         6.65342        -2.14529
   H      -11.34064         9.42608        -3.40112
   H      -13.81076         9.64304        -4.33143
   H      -15.97205         8.25597        -4.54092
   H      -17.65509         6.49716        -4.48124
   H      -18.98504         4.34615        -4.00358
   H      -18.79303         2.12252        -2.85913
   H      -18.81061        -0.15460        -1.64701
   H      -17.96389        -2.43269        -0.04876
   H      -16.50421        -4.29605         1.59157
   H      -12.77341        -2.13210         1.79061
   H      -13.61561         0.13483         0.17589
   H      -15.07007         2.01490        -1.41309
   H      -12.81904        -4.41088         3.08301
   H      -15.49052        -5.90588         2.96017
   H      -13.96772        -6.41346         3.83338
*
