# ORCA input file
# SCF done       -168.902295724776          0.000855843136
! CAM-B3LYP def2-SVP def2/J RIJCOSX Grid4 TightSCF
%maxcore 5000
%tddft
    Mode sTDDFT
    Ethresh 5.0
    maxcore 5000
end

%pal
  nprocs 6
  end
* xyz 0 1
   C      -14.50659         6.62658         2.91958
   C      -14.86536         5.97210         4.07014
   C      -15.94593         6.34815         4.89273
   N      -16.81265         6.60894         5.59898
   C      -14.19495         4.83962         4.57467
   N      -13.67852         3.91677         5.02179
   C      -15.17188         7.80360         2.36328
   C      -14.50617         8.18942         1.17132
   C      -14.89818         9.26852         0.41744
   C      -16.00238        10.00513         0.85925
   C      -16.66184         9.61271         2.04791
   C      -16.26446         8.52029         2.81083
   S      -18.00039        10.65896         2.41101
   C      -17.66045        11.59627         0.98143
   C      -16.59970        11.15114         0.26674
  Br      -18.73710        13.07493         0.56551
   C      -13.39230         7.26259         0.92960
   O      -12.60232         7.27290        -0.00723
   C      -13.41435         6.30006         2.03499
   C      -12.49683         5.27879         2.11124
   N      -11.54264         5.16185         1.18421
   C      -10.60120         4.18686         1.09497
   S      -10.57097         2.83766         2.18779
   C       -9.21923         2.19499         1.31494
   N       -8.66642         0.98705         1.76126
   O       -7.71602         0.53972         1.14780
   O       -9.18530         0.47292         2.73645
   C       -8.82492         2.97072         0.25678
   C       -9.60722         4.13198         0.11264
   C       -9.41512         5.15977        -0.88175
   C       -8.72546         4.95949        -2.01224
   N       -8.48837         5.91185        -2.97923
   C       -7.92834         5.55441        -4.24347
   O       -7.62963         4.41832        -4.52737
   C       -7.83136         6.77707        -4.99925
   C       -8.28024         7.82669        -4.24013
   C       -8.70516         7.27800        -2.91399
   O       -9.13859         7.89004        -1.96887
   C       -8.38860         9.20187        -4.47733
   C       -8.10895         9.86866        -5.64992
   C       -8.20955        11.26543        -5.85589
   C       -7.89949        11.67234        -7.12111
   C       -7.54590        10.61722        -7.98453
   S       -7.59902         9.09023        -7.12752
   C       -7.21421        10.67352        -9.32804
   C       -7.10914        11.80955       -10.15959
   C       -6.78308        11.51609       -11.44944
   C       -6.61754        10.13403       -11.71814
   S       -6.87994         9.22436       -10.23661
   C       -6.31615         9.59683       -12.94432
   C       -6.16486         8.24459       -13.31037
   C       -5.88081         7.81241       -14.61378
   C       -5.81874         6.40093       -14.62548
   C       -5.58383         5.49617       -15.64168
   C       -5.59977         4.13430       -15.31587
   C       -5.41018         2.99691       -16.09496
   C       -5.53341         1.84008       -15.26941
   C       -5.79854         2.26288       -13.97595
   C       -5.85099         3.68932       -13.95609
   C       -6.08323         4.58125       -12.94277
   C       -6.07178         5.95449       -13.26712
   C       -6.27707         7.07454       -12.48432
   C       -5.41084         0.46201       -15.68146
   C       -5.17124         0.04512       -16.92170
   H      -14.36922         9.53637        -0.48372
   H      -16.80074         8.26306         3.70891
   H      -16.25204        11.61074        -0.64037
   H      -12.51082         4.54362         2.90598
   H      -11.57344         5.89175         0.44853
   H       -7.99060         2.70746        -0.36666
   H       -9.84172         6.13247        -0.68898
   H       -8.31451         3.99606        -2.28719
   H       -7.44274         6.79608        -5.99822
   H       -8.73963         9.79354        -3.64151
   H       -8.50884        11.92475        -5.06073
   H       -7.92555        12.69549        -7.45084
   H       -7.27456        12.80441        -9.78745
   H       -6.66103        12.25200       -12.22486
   H       -6.18765        10.31346       -13.74737
   H       -5.73815         8.45103       -15.46622
   H       -5.39602         5.82081       -16.65540
   H       -5.20398         2.99058       -17.14949
   H       -5.94422         1.62835       -13.12090
   H       -6.27175         4.25985       -11.92848
   H       -6.48742         7.06866       -11.43166
   H       -5.53169        -0.26283       -14.88626
   H       -5.04448         0.72818       -17.74405
   H       -5.09171        -1.00162       -17.15754
*
