# ORCA input file
# SCF done       -189.348196481260          0.000614720463
! CAM-B3LYP def2-SVP def2/J RIJCOSX Grid4 TightSCF
%maxcore 5000
%tddft
    Mode sTDDFT
    Ethresh 5.0
    maxcore 5000
end

%pal
  nprocs 6
  end
* xyz 0 1
   C        0.14390        12.50617         0.87912
   C        0.24382        12.17187         2.20652
   C        0.98065        12.91196         3.15453
   N        1.55964        13.46897         3.97484
   C       -0.36626        11.06278         2.82774
   N       -0.82337        10.18473         3.41108
   C        0.77449        13.66695         0.25621
   C        0.41850        13.69724        -1.11469
   C        0.85882        14.67089        -1.97705
   C        1.69577        15.66652        -1.46188
   C        2.04746        15.62969        -0.09193
   C        1.59964        14.64421         0.78001
   S        3.09172        16.95096         0.33532
   C        3.04237        17.52670        -1.30976
   C        2.28348        16.77044        -2.13802
  Br        3.99869        19.07023        -1.77905
   C       -0.45478        12.54806        -1.40997
   O       -0.94970        12.27937        -2.49091
   C       -0.59543        11.80698        -0.15319
   C       -1.28950        10.63341         0.00672
   C       -2.02415         9.87779        -0.91696
   S       -2.30373        10.26311        -2.61263
   C       -3.23098         8.82202        -2.79533
   C       -3.30780         8.08268        -1.59608
   C       -2.63799         8.67589        -0.54789
   S       -4.22679         6.60685        -1.75482
   C       -4.50774         6.97796        -3.43340
   C       -5.19007         6.31704        -4.44343
   C       -5.14342         7.01112        -5.64735
   S       -4.23153         8.51365        -5.49435
   C       -3.91648         8.19090        -3.83115
   C       -5.68928         6.69699        -6.90249
   C       -6.36250         5.55709        -7.26864
   C       -6.89079         5.29319        -8.55868
   C       -7.49404         4.07859        -8.68687
   C       -7.47773         3.30782        -7.50449
   S       -6.67752         4.18789        -6.22147
   C       -7.97720         2.03884        -7.28257
   C       -8.64453         1.17276        -8.17543
   C       -8.99357        -0.02259        -7.62311
   C       -8.62394        -0.17485        -6.26172
   S       -7.81383         1.27971        -5.71520
   C       -8.85631        -1.28871        -5.49237
   C       -8.50960        -1.49179        -4.14649
   S       -8.91219        -3.04475        -3.41058
   C       -8.22460        -2.54846        -1.91048
   C       -7.71621        -1.24048        -1.99809
   C       -7.87277        -0.64973        -3.24328
   S       -7.00866        -0.68520        -0.50754
   C       -7.40144        -2.20950         0.23546
   C       -7.22633        -2.71214         1.51445
   C       -7.71926        -4.00275         1.64261
   S       -8.39309        -4.59567         0.12904
   C       -8.04315        -3.10152        -0.64473
   C       -7.67369        -4.86534         2.75595
   C       -7.46395        -4.55714         4.06935
   C       -7.52651        -3.31819         4.80992
   C       -8.33141        -2.24073         4.53563
   C       -8.42365        -1.09994         5.35736
   N       -8.51784        -0.14204         5.98304
   C       -9.22508        -2.18913         3.44783
   N       -9.99515        -2.11309         2.59977
   C       -6.79394        -3.51996         6.05659
   C       -6.49577        -4.89953         6.18908
   C       -6.98092        -5.61827         4.99273
   O       -6.94971        -6.80838         4.77818
   C       -5.83698        -5.40837         7.28152
   C       -5.44317        -4.51271         8.28205
   C       -5.73387        -3.13566         8.13257
   C       -6.40968        -2.62126         7.03243
   S       -5.14547        -2.20782         9.47807
   C       -4.52759        -3.66220        10.21548
   C       -4.74954        -4.78577         9.49294
  Br       -3.64885        -3.55931        11.86904
   H        0.56832        14.66435        -3.01588
   H        1.89859        14.66176         1.81448
   H        2.14340        16.98023        -3.18269
   H       -1.27849        10.19211         0.99583
   H       -2.57873         8.27686         0.44855
   H       -5.70117         5.38422        -4.30452
   H       -5.55053         7.43925        -7.67794
   H       -6.80393         6.01434        -9.35206
   H       -7.94350         3.71757        -9.59438
   H       -8.84689         1.45204        -9.19376
   H       -9.50677        -0.80754        -8.14996
   H       -9.36414        -2.11023        -5.98078
   H       -7.54090         0.34377        -3.47339
   H       -6.72247        -2.18539         2.30398
   H       -7.73632        -5.92751         2.54036
   H       -5.63002        -6.46385         7.36299
   H       -6.60455        -1.56412         6.95716
   H       -4.43689        -5.76744         9.79878
*
