# ORCA input file
# SCF done       -198.013920890089          0.000685467227
! CAM-B3LYP def2-SVP def2/J RIJCOSX Grid4 TightSCF
%maxcore 5000
%tddft
    Mode sTDDFT
    Ethresh 5.0
    maxcore 5000
end

%pal
  nprocs 6
  end
* xyz 0 1
   C        2.27829       -14.55347        -6.77156
   C        3.12015       -14.58121        -5.73051
   C        3.96723       -15.66202        -5.31032
   C        4.70669       -15.40119        -4.21100
   C        4.51311       -14.09860        -3.66936
   S        3.34057       -13.21332        -4.62903
   C        5.10993       -13.55045        -2.56410
   C        6.04628       -14.14284        -1.67712
   C        6.43603       -13.34208        -0.65382
   C        5.84006       -12.05204        -0.66325
   S        4.74829       -11.91130        -2.04881
   C        6.02334       -11.03846         0.22515
   N        5.40397        -9.83699         0.07857
   C        5.45333        -8.77542         0.91039
   S        6.44753        -8.78359         2.33381
   C        5.99506        -7.13246         2.63933
   N        6.52411        -6.52599         3.77168
   O        6.21873        -5.36564         3.99729
   O        7.26634        -7.20930         4.46534
   C        5.14075        -6.62229         1.69435
   C        4.79659        -7.55229         0.70181
   C        3.90799        -7.23929        -0.39499
   C        3.12251        -8.10606        -1.05700
   C        2.27332        -7.81408        -2.19287
   C        1.53110        -8.86928        -2.74663
   C        0.72152        -8.63986        -3.83138
   C        0.63371        -7.35649        -4.39636
   C        1.36584        -6.30600        -3.86222
   C        2.17605        -6.54213        -2.77021
   C       -0.28670        -7.40637        -5.51155
   C       -0.77499        -8.71901        -5.63036
   C       -0.16171        -9.61239        -4.57718
   C       -1.23473       -10.21852        -3.65445
   C       -2.09697        -9.16090        -2.97590
   C        0.66671       -10.74284        -5.21564
   C        1.75547       -10.22604        -6.14750
   C       -1.68866        -9.03577        -6.60452
   C       -2.12827        -8.04780        -7.50139
   C       -1.62512        -6.74591        -7.37111
   C       -0.71551        -6.41886        -6.38681
   C       -3.09566        -8.41159        -8.50904
   C       -3.45660        -7.66263        -9.57103
   C       -4.43539        -8.02549       -10.54082
   C       -5.28319        -9.11553       -10.57806
   C       -6.11508        -9.08417       -11.69783
   C       -5.90260        -7.96459       -12.53400
   S       -4.66155        -6.94597       -11.91189
   C       -6.80337        -8.06939       -13.59126
   C       -7.55430        -9.25389       -13.37350
   N       -7.11723        -9.85637       -12.22170
   C       -8.51717        -9.49339       -14.34301
   C       -8.51874        -8.50564       -15.32131
   S       -7.29837        -7.26348       -15.02388
   C       -9.34307        -8.38310       -16.45519
   C      -10.36422        -9.23201       -16.77828
   C      -11.15202        -9.03759       -17.92384
   C      -12.21931        -9.82433       -18.28349
   C      -13.05924        -9.66148       -19.44967
   C      -12.89831        -8.75625       -20.47004
   C      -13.75375        -8.66172       -21.58640
   N      -14.41204        -8.53524       -22.51915
   C      -11.86292        -7.80504       -20.57097
   N      -11.05615        -7.00434       -20.73935
   C      -14.12244       -10.66047       -19.37495
   C      -13.92531       -11.44758       -18.21490
   C      -12.72415       -10.97037       -17.49849
   O      -12.27288       -11.43987       -16.47163
   C      -14.76548       -12.47538       -17.86398
   C      -15.85791       -12.73925       -18.69705
   C      -16.04867       -11.94666       -19.85275
   C      -15.19670       -10.90810       -20.20876
   S      -17.46117       -12.43824       -20.73885
   C      -17.77075       -13.68456       -19.55949
   C      -16.86515       -13.73294       -18.55430
  Br      -19.26073       -14.80570       -19.76675
   H        2.17436       -15.40873        -7.41547
   H        1.68394       -13.68680        -6.99623
   H        3.98117       -16.58904        -5.85555
   H        5.39332       -16.09652        -3.76139
   H        6.39783       -15.14791        -1.82527
   H        7.13469       -13.62463         0.11308
   H        6.66067       -11.16027         1.08777
   H        4.88065        -9.70244        -0.78202
   H        4.76767        -5.61516         1.74202
   H        3.88667        -6.18997        -0.65336
   H        3.05524        -9.13369        -0.71967
   H        1.60786        -9.85772        -2.31542
   H        1.30419        -5.31732        -4.29186
   H        2.74393        -5.72369        -2.35596
   H       -0.73832       -10.82536        -2.89441
   H       -1.87118       -10.88051        -4.24559
   H       -1.48489        -8.49943        -2.36686
   H       -2.83536        -9.63513        -2.33342
   H       -2.61982        -8.55854        -3.71564
   H       -0.00763       -11.39826        -5.77137
   H        1.12692       -11.33271        -4.42079
   H        1.32389        -9.67049        -6.97740
   H        2.33027       -11.05829        -6.54684
   H        2.43714        -9.57041        -5.61099
   H       -2.07190       -10.04253        -6.69677
   H       -1.96939        -5.97441        -8.04196
   H       -0.34788        -5.40745        -6.29819
   H       -3.54604        -9.38771        -8.38343
   H       -2.98345        -6.70642        -9.74459
   H       -5.30029        -9.88081        -9.82474
   H       -7.47841       -10.70774       -11.82811
   H       -9.18693       -10.33288       -14.35642
   H       -9.14374        -7.53858       -17.10385
   H      -10.59392       -10.07366       -16.14457
   H      -10.89343        -8.19619       -18.55354
   H      -14.58697       -13.05734       -16.97329
   H      -15.38845       -10.33278       -21.09877
   H      -16.90425       -14.43851       -17.74451
*
