# ORCA input file
# SCF done       -162.511040808256          0.000758967261
! CAM-B3LYP def2-SVP def2/J RIJCOSX Grid4 TightSCF
%maxcore 5000
%tddft
    Mode sTDDFT
    Ethresh 5.0
    maxcore 5000
end

%pal
  nprocs 6
  end
* xyz 0 2
   C        1.19777        -9.93893        13.40628
   C        2.09703        -9.33390        12.61209
   C        2.59795        -7.99811        12.70457
   C        3.50568        -7.67441        11.74781
   C        3.79278        -8.71682        10.83749
   S        2.86130       -10.14543        11.23664
   C        4.67101        -8.68286         9.76487
   C        5.47042        -7.61154         9.33444
   C        6.23527        -7.90205         8.23213
   C        6.07621        -9.20534         7.74713
   S        4.91555       -10.07336         8.73017
   C        6.72421        -9.77602         6.65184
   C        6.55039       -11.06387         6.21269
   C        7.21555       -11.62236         5.11694
   C        7.09844       -12.92350         4.62615
   C        7.89322       -13.18708         3.52963
   C        8.66255       -12.09952         3.12028
   S        8.36300       -10.72062         4.15234
   C        9.57281       -12.01599         2.05925
   C        9.95850       -13.01662         1.16378
   C       10.88768       -12.59418         0.24262
   C       11.27852       -11.25377         0.38510
   S       10.41747       -10.52865         1.72395
   C       12.15890       -10.59666        -0.46892
   C       12.63482        -9.29528        -0.43797
   C       12.64532        -8.28583         0.55858
   O       12.12296        -8.55114         1.78538
   C       11.84333        -7.42751         2.58845
   C       13.07655        -6.56380         2.80457
   S       13.53733        -5.74076         1.24443
   C       13.29406        -7.12531         0.18635
   C       13.82646        -7.12903        -1.12264
   S       13.43728        -8.68435        -1.89444
   N       12.04480        -8.11958        -2.76334
   C       11.27096        -9.13700        -3.44576
   C       14.52919        -6.15153        -1.78533
   C       15.04878        -6.26768        -3.07201
   C       15.69729        -5.24706        -3.72614
   C       16.23102        -5.32540        -5.01352
   C       16.87407        -4.31003        -5.72084
   C       17.29881        -4.68028        -6.97954
   C       17.00713        -6.00428        -7.30452
   S       16.17086        -6.78411        -5.98710
   C       17.32380        -6.68207        -8.49148
   C       17.96036        -6.16751        -9.61847
   C       18.15233        -7.09683       -10.62023
   C       17.67745        -8.37133       -10.31409
   S       16.95917        -8.37595        -8.71934
   C       17.76112        -9.51169       -11.12058
   C       17.30278       -10.75728       -10.78050
   C       17.42773       -11.89417       -11.58224
   C       16.99217       -13.18964       -11.28596
   C       17.27394       -14.11773       -12.25905
   C       17.94700       -13.58462       -13.36922
   S       18.20925       -11.86852       -13.14935
   C       18.38306       -14.24877       -14.50699
   C       18.25271       -15.62401       -14.80373
   C       18.78755       -15.99494       -15.99603
   C       19.38352       -14.92408       -16.73167
   S       19.21577       -13.42305       -15.80778
   C       19.98775       -14.97745       -17.93094
   H        0.75966        -9.41441        14.23676
   H        0.89656       -10.95752        13.24509
   H        2.25918        -7.33455        13.48019
   H        3.98141        -6.71270        11.66830
   H        5.47079        -6.65946         9.83380
   H        6.90770        -7.20426         7.76367
   H        7.41909        -9.13835         6.11832
   H        5.85832       -11.70715         6.74108
   H        6.44120       -13.64347         5.08118
   H        7.92754       -14.13729         3.02724
   H        9.56062       -14.01462         1.20309
   H       11.29989       -13.22334        -0.52748
   H       12.49283       -11.19047        -1.31314
   H       11.49011        -7.84187         3.53587
   H       11.04177        -6.82762         2.13697
   H       13.91819        -7.17243         3.13643
   H       12.88175        -5.77215         3.52443
   H       12.36053        -7.39855        -3.40578
   H       10.40583        -8.65293        -3.89554
   H       10.92081        -9.85382        -2.70409
   H       11.82821        -9.66488        -4.22677
   H       14.66408        -5.21740        -1.25548
   H       14.94169        -7.21770        -3.58541
   H       15.80429        -4.29543        -3.22157
   H       17.01789        -3.32953        -5.30171
   H       17.81437        -4.02233        -7.65532
   H       18.26835        -5.13980        -9.68837
   H       18.62868        -6.87977       -11.55997
   H       18.24045        -9.38150       -12.08295
   H       16.81521       -10.89061        -9.82242
   H       16.48403       -13.41756       -10.36499
   H       17.01194       -15.15829       -12.19236
   H       17.76718       -16.30166       -14.12363
   H       18.78375       -16.99711       -16.38626
   H       20.06942       -15.90919       -18.46188
   H       20.40332       -14.10170       -18.39395
*
