# ORCA input file
# SCF done       -184.730467557153          0.000158500863
! CAM-B3LYP def2-SVP def2/J RIJCOSX Grid4 TightSCF
%maxcore 5000
%tddft
    Mode sTDDFT
    Ethresh 5.0
    maxcore 5000
end

%pal
  nprocs 6
  end
* xyz 0 1
   C        4.58204         2.62125        -0.22636
   C        5.51053         1.77195         0.23232
   C        6.83837         2.08250         0.68168
   C        7.55193         1.01511         1.09861
   C        6.85791        -0.22623         1.01761
   S        5.24331         0.02712         0.37491
   C        7.32138        -1.46300         1.38219
   C        8.59059        -1.78998         1.92960
   C        8.74565        -3.10403         2.21405
   C        7.61455        -3.92425         1.91582
   S        6.34531        -2.91391         1.22766
   C        7.55645        -5.25803         2.18147
   C        6.50861        -6.21172         1.97117
   C        6.65338        -7.48010         2.56799
   C        5.67190        -8.42349         2.42017
   C        4.52443        -8.15202         1.65196
   C        4.37698        -6.91390         1.04129
   C        5.35787        -5.95817         1.20871
   C        3.66900        -9.31828         1.67573
   C        4.27864       -10.30294         2.47346
   C        5.61075        -9.81863         2.99599
   C        5.63627        -9.79205         4.53508
   C        4.50980        -8.95482         5.12877
   C        6.76689       -10.69244         2.47515
   C        6.81083       -10.76760         0.95379
   C        3.66571       -11.50957         2.69557
   C        2.41562       -11.77267         2.11432
   C        1.83918       -10.79690         1.28950
   C        2.44536        -9.57538         1.07301
   C        1.70765       -13.00965         2.35027
   C        1.95915       -13.86200         3.36327
   C        1.25451       -15.07386         3.61625
   O        0.29921       -15.53328         2.77234
   C       -0.18282       -16.69171         3.28204
   C        0.46876       -16.97672         4.46883
   C        1.39323       -15.94732         4.68885
   C        2.33110       -15.81483         5.83763
   C       -1.18714       -17.40073         2.55801
   C       -1.75916       -18.53585         3.00637
   C       -2.73920       -19.35320         2.33507
   C       -3.25555       -20.46244         3.02578
   C       -4.15757       -21.29434         2.41357
   C       -4.57255       -21.05124         1.09240
   C       -4.08274       -19.95016         0.40266
   C       -3.17736       -19.11474         1.02515
   C       -5.48620       -22.10074         0.69805
   C       -5.63907       -22.99040         1.77755
   C       -4.82056       -22.53516         2.96283
   C       -5.72136       -22.19970         4.16666
   C       -6.78836       -21.16303         3.83631
   C       -3.78375       -23.59549         3.37509
   C       -2.84671       -23.97802         2.23587
   C       -6.43962       -24.09793         1.67307
   C       -7.11832       -24.35607         0.46880
   C       -6.96057       -23.45285        -0.59577
   C       -6.15776       -22.33602        -0.49412
   C       -7.95519       -25.50892         0.28350
   C       -8.19687       -26.48640         1.19319
   C       -9.01721       -27.60549         0.94420
   C       -9.25847       -28.59595         1.85568
   C      -10.06100       -29.75361         1.67470
   C      -10.12044       -30.57291         2.75537
   C       -9.36887       -30.11759         3.86930
   S       -8.57940       -28.60080         3.48151
   C       -9.23428       -30.71698         5.09694
   C       -9.81639       -31.94017         5.53249
   C       -9.50932       -32.28472         6.80223
   C       -8.65291       -31.35396         7.48026
   S       -8.26808       -30.01706         6.38471
   C       -8.18891       -31.42979         8.73489
   H        4.78789         3.67496        -0.29369
   H        3.61072         2.28370        -0.53776
   H        7.19606         3.09701         0.67188
   H        8.56131         1.06727         1.46725
   H        9.34255        -1.04035         2.10015
   H        9.63749        -3.53183         2.63844
   H        8.44309        -5.65994         2.66016
   H        7.53745        -7.68992         3.15415
   H        3.50431        -6.69601         0.44376
   H        5.24222        -5.00035         0.72742
   H        6.59784        -9.39094         4.86298
   H        5.55966       -10.81715         4.90453
   H        4.57733        -7.92434         4.78721
   H        4.56826        -8.96277         6.21497
   H        3.54099        -9.35073         4.83225
   H        6.65677       -11.69927         2.88416
   H        7.70932       -10.28271         2.84548
   H        5.88905       -11.19420         0.56464
   H        7.64205       -11.39158         0.63293
   H        6.93754        -9.77627         0.52431
   H        4.14807       -12.26136         3.30158
   H        0.88377       -11.00644         0.82929
   H        1.97361        -8.83351         0.44564
   H        0.89079       -13.23406         1.67716
   H        2.73118       -13.64495         4.08693
   H        0.30423       -17.82702         5.09865
   H        2.21110       -16.65551         6.51579
   H        2.13903       -14.89363         6.38688
   H        3.36376       -15.79242         5.49063
   H       -1.46108       -16.96440         1.60861
   H       -1.45701       -18.90167         3.97911
   H       -2.92921       -20.65252         4.03881
   H       -4.39911       -19.75213        -0.61103
   H       -2.78874       -18.26590         0.48404
   H       -5.09370       -21.82696         4.97911
   H       -6.20270       -23.11797         4.50996
   H       -6.33103       -20.23346         3.50434
   H       -7.39322       -20.95489         4.71605
   H       -7.44288       -21.52451         3.04623
   H       -4.31195       -24.48528         3.72415
   H       -3.19832       -23.20630         4.21098
   H       -3.40826       -24.38845         1.39953
   H       -2.13345       -24.72696         2.57265
   H       -2.29475       -23.10887         1.88461
   H       -6.54573       -24.77105         2.50946
   H       -7.48423       -23.64825        -1.52128
   H       -6.05146       -21.65982        -1.32965
   H       -8.42604       -25.59465        -0.68897
   H       -7.74832       -26.44269         2.17643
   H       -9.48493       -27.69520        -0.02789
   H      -10.56697       -29.93729         0.74281
   H      -10.68083       -31.49017         2.78949
   H      -10.44514       -32.52247         4.88209
   H       -9.85662       -33.17241         7.30077
   H       -8.44871       -32.26066         9.36675
   H       -7.54925       -30.67192         9.14825
*
