# ORCA input file
# SCF done       -186.854644371322          0.000593107158
! CAM-B3LYP def2-SVP def2/J RIJCOSX Grid4 TightSCF
%maxcore 5000
%tddft
    Mode sTDDFT
    Ethresh 5.0
    maxcore 5000
end

%pal
  nprocs 6
  end
* xyz 0 1
   C       -1.75145         3.26132        -3.44999
   C       -0.55316         3.54523        -4.03449
   C       -0.40069         4.43536        -5.11769
   N       -0.21091         5.11440        -6.02331
   C        0.66548         2.92585        -3.68186
   N        1.67946         2.43089        -3.47243
   C       -3.04014         3.75463        -3.90749
   C       -4.05497         2.84367        -3.49027
   C       -5.36735         3.04753        -3.81146
   C       -5.72291         4.19505        -4.55583
   C       -4.71316         5.12539        -4.94194
   C       -3.36190         4.88650        -4.60607
   C       -5.09173         6.27728        -5.66159
   C       -6.40077         6.50125        -5.98901
   C       -7.39324         5.58342        -5.61242
   C       -7.06139         4.45560        -4.91270
   C       -3.44825         1.77665        -2.67346
   O       -3.97043         0.79124        -2.21410
   C       -2.03173         2.22811        -2.45637
   C       -1.34861         1.83828        -1.36457
   C       -0.16753         2.51833        -0.85761
   N        0.63229         1.88290        -0.00373
   C        1.70468         2.54383         0.39978
   C        2.01892         3.82113        -0.03940
   C        1.10203         4.42204        -0.91132
   N        0.00352         3.76283        -1.27279
   C        1.21974         5.70168        -1.57040
   C        2.33807         6.43784        -1.71651
   C        2.35609         7.58400        -2.56576
   N        3.45050         8.39834        -2.72537
   C        4.69587         8.32391        -2.00296
   C        4.55923         8.85634        -0.57851
   C        3.22172         9.41104        -3.68014
   O        4.05366        10.24077        -3.97950
   C        1.87050         9.17028        -4.13253
   C        1.36238         8.04747        -3.42168
   C        0.02114         7.79578        -3.90248
   O       -0.82326         6.97530        -3.58913
   N       -0.19011         8.77838        -4.87880
   C       -1.42242         8.83219        -5.62767
   C       -1.28511         8.15914        -6.99102
   C        0.90375         9.59905        -5.03314
   C        0.94850        10.67191        -5.96726
   C        1.98578        11.52684        -6.07618
   C        1.98397        12.60072        -7.04731
   N        0.97673        12.66110        -7.93020
   C        1.01533        13.63211        -8.82041
   C        2.03565        14.57085        -8.85811
   C        3.03208        14.45018        -7.87922
   N        2.99361        13.45912        -6.99084
   C        4.12454        15.39659        -7.79770
   C        5.02945        15.38804        -6.79634
   C        6.08011        16.34593        -6.73933
   C        6.98156        16.46236        -5.72753
   C        8.07615        17.41807        -5.63991
   C        8.36315        18.42367        -6.52512
   C        9.43728        19.32746        -6.37629
   N       10.28842        20.09558        -6.31920
   C        7.64047        18.72478        -7.69898
   N        7.11070        19.04297        -8.66716
   C        8.81900        17.13279        -4.41802
   C        8.18909        16.05034        -3.74075
   C        7.01362        15.60268        -4.50791
   O        6.23666        14.72963        -4.19556
   C        8.66353        15.56293        -2.55725
   C        9.81396        16.14747        -1.98314
   C       10.45230        17.23054        -2.65412
   C        9.93850        17.71259        -3.87917
   C       11.59913        17.80854        -2.07161
   C       12.09192        17.34133        -0.88394
   C       11.46258        16.27461        -0.22448
   C       10.34831        15.69022        -0.76249
   H       -6.12749         2.34880        -3.49480
   H       -2.60895         5.61286        -4.86822
   H       -4.32244         6.97728        -5.95221
   H       -6.68074         7.38671        -6.53991
   H       -8.42187         5.77571        -5.87847
   H       -7.82181         3.74648        -4.61984
   H       -1.73248         1.01640        -0.77517
   H        2.34132         2.01560         1.09831
   H        2.91573         4.32220         0.28439
   H        0.31270         6.00283        -2.07778
   H        3.26238         6.15120        -1.23520
   H        5.40256         8.94484        -2.56095
   H        5.06031         7.29229        -2.00053
   H        4.24381         9.89648        -0.60129
   H        5.51653         8.79448        -0.06822
   H        3.82362         8.28444        -0.01668
   H       -1.73867         9.87395        -5.73246
   H       -2.16331         8.30097        -5.02214
   H       -0.54589         8.67206        -7.60157
   H       -2.23928         8.17729        -7.51177
   H       -0.97066         7.12581        -6.86375
   H        0.10279        10.81324        -6.62507
   H        2.86138        11.45686        -5.44723
   H        0.19545        13.65700        -9.52815
   H        2.05747        15.35862        -9.59330
   H        4.17400        16.14349        -8.58073
   H        4.94733        14.64516        -6.01616
   H        6.14789        17.02472        -7.58082
   H        8.16463        14.74056        -2.06639
   H       10.44740        18.53191        -4.36126
   H       12.07995        18.62961        -2.58283
   H       12.96993        17.79126        -0.44533
   H       11.86542        15.91872         0.71200
   H        9.85926        14.86872        -0.25972
*
