# ORCA input file
# SCF done       -239.704890233663          0.000978461462
! CAM-B3LYP def2-SVP def2/J RIJCOSX Grid4 TightSCF
%maxcore 5000
%tddft
    Mode sTDDFT
    Ethresh 5.0
    maxcore 5000
end

%pal
  nprocs 6
  end
* xyz 0 1
   C       -0.82215         4.78720        -3.61004
   C       -0.33916         3.60319        -4.09985
   C        0.20615         2.58273        -3.29635
   N        0.68126         1.73296        -2.68860
   C       -0.40784         3.26304        -5.46582
   N       -0.48559         2.94028        -6.56438
   C       -1.00605         5.12622        -2.20497
   C       -1.91481         6.22269        -2.11674
   C       -2.26014         6.76826        -0.91276
   C       -1.69300         6.24506         0.26928
   C       -0.78451         5.14962         0.18614
   C       -0.45916         4.59081        -1.07045
   C       -0.20804         4.65059         1.37035
   C       -0.51726         5.20336         2.58334
   C       -1.41719         6.27632         2.66665
   C       -1.99299         6.78609         1.53472
   C       -2.32812         6.61683        -3.46743
   O       -3.15053         7.44654        -3.79502
   C       -1.45658         5.83181        -4.38663
   C       -1.31338         6.26825        -5.66846
   C       -0.28084         6.04154        -6.60641
   C       -0.41823         6.07746        -8.00676
   N       -1.49825         6.55236        -8.74779
   O       -1.46050         6.44938        -9.96115
   O       -2.42285         7.11668        -8.15963
   C        0.76183         5.54800        -8.59834
   C        1.64440         5.20924        -7.60120
   C        1.08032         5.55602        -6.35495
   C        1.70536         5.55277        -5.09587
   C        2.53322         4.58983        -4.52444
   C        2.66385         4.86207        -3.16007
   C        1.97318         6.03812        -2.85014
   N        1.85064         6.58807        -1.57220
   O        1.18245         7.60721        -1.44111
   O        2.38543         6.00331        -0.64490
   C        1.42815         6.56598        -4.05867
   C        0.92416         7.81786        -4.31642
   C        0.75145         8.29903        -5.62344
   C       -0.22045         9.18823        -6.04133
   S       -0.41303         9.46633        -7.75185
   C       -2.02700        10.06268        -7.52301
   C       -2.36640        10.13922        -6.15577
   C       -1.33219         9.69446        -5.30740
   O       -1.25745         9.65031        -3.98711
   C       -2.24060        10.24641        -3.13998
   C       -2.17367        11.76626        -3.17008
   O       -3.54655        10.58757        -5.67763
   C       -4.76563         9.99407        -6.15234
   C       -5.58211         9.49613        -4.96984
   C       -2.83892        10.34103        -8.63469
   C       -2.40955        10.19202        -9.92760
   C       -3.22186        10.33212       -11.06411
   C       -2.82783        10.68708       -12.35426
   N       -1.51710        10.89564       -12.82526
   O       -0.59338        10.80841       -12.03252
   O       -1.38530        11.15630       -14.00666
   C       -3.98980        10.90029       -13.16181
   C       -5.10294        10.71894       -12.39472
   C       -4.69704        10.28486       -11.09282
   C       -5.50071         9.70288       -10.13419
   C       -5.12752         8.59203        -9.30382
   C       -6.23756         8.12652        -8.67137
   C       -7.35390         8.95877        -9.02002
   N       -8.61963         8.81098        -8.41352
   O       -9.59245         9.31460        -8.94514
   O       -8.65629         8.16997        -7.37852
   C       -6.94004         9.94218        -9.91148
   C       -7.70359        11.08142       -10.25143
   C       -7.24051        12.27835       -10.70496
   C       -8.10997        13.38110       -10.92029
   C       -9.20214        13.67390       -10.15705
   C      -10.22560        14.65951       -10.44796
   C      -10.45142        15.24480       -11.66730
   C      -11.48017        16.17639       -11.91914
   N      -12.28906        16.94743       -12.18117
   C       -9.70284        14.97849       -12.83274
   N       -9.14255        14.79287       -13.81766
   C      -11.03042        14.84008        -9.24810
   C      -10.53127        13.97532        -8.23158
   C       -9.38348        13.21395        -8.74302
   O       -8.67009        12.46337        -8.11404
   C      -11.09757        13.91937        -6.98983
   C      -12.21399        14.73640        -6.70536
   C      -12.71716        15.60702        -7.71580
   C      -12.10663        15.64746        -8.99020
   C      -13.83085        16.41882        -7.41992
   C      -14.42176        16.37342        -6.18634
   C      -13.92602        15.51606        -5.19258
   C      -12.84609        14.71446        -5.44651
   H       -2.95286         7.59537        -0.86173
   H        0.24339         3.77249        -1.10759
   H        0.48980         3.83023         1.29871
   H       -0.06676         4.81847         3.48565
   H       -1.64842         6.70073         3.63223
   H       -2.68224         7.61593         1.59290
   H       -2.09904         6.94250        -6.00222
   H        0.90916         5.45295        -9.65725
   H        2.63952         4.83104        -7.73314
   H        2.91032         3.71805        -5.02435
   H        3.18957         4.25928        -2.44256
   H        0.62794         8.43391        -3.47775
   H        1.42252         7.93319        -6.39074
   H       -1.96893         9.87023        -2.15061
   H       -3.23525         9.88820        -3.40634
   H       -2.48108        12.14511        -4.14093
   H       -1.16133        12.10240        -2.95764
   H       -2.84216        12.16688        -2.41398
   H       -4.53571         9.16238        -6.82258
   H       -5.32504        10.76427        -6.69689
   H       -5.04750         8.70533        -4.45009
   H       -6.52723         9.10183        -5.33314
   H       -5.78267        10.31147        -4.27958
   H       -3.84051        10.69602        -8.44392
   H       -1.35736        10.00291       -10.11085
   H       -3.95065        11.16347       -14.20209
   H       -6.12023        10.74868       -12.73460
   H       -4.15769         8.13388        -9.28844
   H       -6.30778         7.27377        -8.02313
   H       -8.76512        10.98455       -10.06552
   H       -6.19880        12.41386       -10.96099
   H       -7.84481        14.04632       -11.73397
   H      -10.70326        13.25207        -6.23807
   H      -12.50612        16.32100        -9.73175
   H      -14.21021        17.07577        -8.18871
   H      -15.27554        16.99770        -5.96998
   H      -14.40446        15.49366        -4.22501
   H      -12.46088        14.05145        -4.68591
*
