# ORCA input file
# SCF done       -244.084954975740          0.000853986453
! CAM-B3LYP def2-SVP def2/J RIJCOSX Grid4 TightSCF
%maxcore 5000
%tddft
    Mode sTDDFT
    Ethresh 5.0
    maxcore 5000
end

%pal
  nprocs 6
  end
* xyz 0 1
   C        3.93210        -5.66293         3.93115
   C        4.72544        -6.73345         4.23593
   F        5.93258        -6.54285         4.78264
   C        4.28599        -8.04820         3.98004
   F        5.08449        -9.07836         4.28890
   C        3.05888        -8.27408         3.42214
   C        2.21847        -7.19174         3.09629
   C        2.66094        -5.86179         3.35600
   C        1.83268        -4.75970         3.04209
   C        0.60230        -4.98176         2.48283
   C        0.17284        -6.31316         2.21674
   C        0.94778        -7.39718         2.51469
   C       -1.16442        -6.27845         1.59914
   O       -1.84430        -7.23700         1.28505
   C       -1.48910        -4.85248         1.42357
   C       -0.45931        -4.06497         2.07830
   C       -0.51769        -2.72812         2.36363
   C        0.52020        -2.01921         3.00499
   N        1.33934        -1.39746         3.51414
   C       -1.64485        -1.90468         2.14168
   N       -2.53853        -1.19049         2.05390
   C       -2.49045        -4.35192         0.63941
   C       -3.52403        -5.03707        -0.02721
   S       -3.97450        -6.71739         0.14410
   C       -5.35400        -6.54858        -0.91991
   C       -5.43280        -5.23577        -1.40654
   C       -4.41041        -4.41475        -0.90467
   C       -4.39460        -3.03819        -1.38760
   O       -3.60038        -2.16881        -1.17369
   S       -5.82168        -2.82961        -2.46424
   C       -6.36222        -4.55254        -2.29336
   O       -7.34021        -4.94886        -2.86205
   C       -6.13194        -7.70746        -1.12784
   C       -7.20258        -7.81434        -1.96292
   C       -7.99497        -8.97691        -2.11374
   C       -8.12008       -10.03215        -1.22343
   C       -9.18168       -10.87640        -1.62508
   O       -9.40951       -11.97870        -0.89936
   C      -10.49656       -12.83556        -1.16362
   C       -9.75407       -10.36199        -2.80744
   C       -9.03275        -9.14410        -3.12147
   C       -9.32889        -8.23698        -4.11799
   C       -8.45547        -7.33723        -4.77018
   C       -9.18538        -6.61084        -5.68301
   O       -8.65997        -5.73970        -6.52410
   C       -9.49579        -5.15906        -7.50538
   C      -10.60077        -6.98705        -5.55299
   C      -10.68270        -7.98161        -4.66038
   C      -10.69324       -10.98730        -3.66777
   C      -10.74475       -10.85158        -5.02175
   C      -11.71483       -11.51106        -5.81475
   S      -12.99597       -12.43447        -5.08992
   C      -13.61476       -12.92560        -6.63944
   C      -12.83341       -12.39909        -7.66304
   C      -11.79717       -11.57495        -7.20421
   C      -10.90849       -10.79344        -8.12212
   N      -10.94703        -9.34998        -7.76195
   O      -12.02262        -8.87283        -7.50112
   O       -9.90733        -8.73738        -7.81368
   C      -11.41033       -10.86219        -9.57066
   C      -11.79256       -12.29003        -9.92748
   C      -13.01789       -12.72147        -9.11899
   N      -13.15477       -14.19626        -9.28677
   O      -12.22568       -14.88006        -8.94919
   O      -14.19299       -14.60161        -9.75683
   C      -14.75835       -13.75036        -6.73622
   C      -15.47992       -14.19617        -5.67457
   C      -16.62780       -15.01802        -5.78855
   C      -16.96524       -15.88305        -6.78682
   C      -18.38770       -16.30298        -6.92531
   O      -19.27112       -16.14205        -6.11478
   C      -18.48983       -16.89018        -8.27650
   C      -19.60145       -17.29660        -8.95683
   C      -19.45818       -17.78366       -10.27545
   C      -18.16266       -17.82917       -10.86837
   C      -18.03087       -18.29999       -12.19027
   C      -19.13137       -18.71005       -12.88876
   C      -20.41119       -18.66783       -12.30043
   C      -20.57272       -18.21481       -11.02134
   F      -21.47348       -19.07518       -13.00977
   F      -19.00370       -19.15698       -14.14595
   C      -17.02845       -17.41008       -10.13596
   C      -17.19049       -16.95943        -8.85400
   C      -16.21759       -16.48711        -7.87158
   C      -14.88679       -16.81112        -7.88146
   C      -13.99089       -16.50068        -6.84006
   N      -13.22971       -16.27612        -6.01041
   C      -14.27373       -17.55714        -8.91094
   N      -13.73330       -18.16830        -9.71726
   H        4.28302        -4.66333         4.13517
   H        2.73731        -9.28618         3.23222
   H        2.19592        -3.76558         3.24694
   H        0.59667        -8.39678         2.30807
   H       -2.50189        -3.28226         0.45871
   H       -5.80390        -8.57385        -0.56803
   H       -7.49697        -6.95700        -2.54732
   H       -7.55149       -10.19139        -0.32767
   H      -10.44083       -13.61412        -0.40346
   H      -10.41510       -13.29426        -2.15317
   H      -11.45121       -12.31124        -1.06960
   H       -7.38940        -7.30877        -4.67895
   H       -8.84885        -4.53362        -8.11785
   H      -10.27237        -4.54029        -7.04768
   H       -9.95660        -5.93108        -8.12646
   H      -11.41370        -6.53312        -6.08629
   H      -11.57514        -8.44868        -4.29234
   H      -11.41121       -11.66701        -3.23014
   H       -9.98805       -10.27191        -5.52946
   H       -9.86216       -11.11020        -8.05329
   H      -10.63460       -10.49949       -10.24604
   H      -12.28934       -10.21951        -9.67231
   H      -10.96543       -12.96526        -9.69444
   H      -12.00987       -12.36110       -10.99427
   H      -13.93884       -12.27691        -9.51383
   H      -15.10967       -13.99869        -7.72807
   H      -15.21650       -13.85443        -4.68211
   H      -17.37806       -14.91138        -5.01079
   H      -20.57715       -17.24303        -8.49828
   H      -17.05747       -18.34255       -12.65330
   H      -21.55921       -18.18795       -10.58555
   H      -16.06042       -17.43695       -10.60963
*
