# ORCA input file
# SCF done       -209.697928951645          0.000840507067
! CAM-B3LYP def2-SVP def2/J RIJCOSX Grid4 TightSCF
%maxcore 5000
%tddft
    Mode sTDDFT
    Ethresh 5.0
    maxcore 5000
end

%pal
  nprocs 6
  end
* xyz 0 1
   C       -7.94084        -0.84327        -7.47987
   C       -8.81212        -1.30431        -8.42620
   F       -8.94926        -0.65509        -9.58894
   C       -9.57677        -2.46576        -8.19271
   F      -10.42212        -2.89483        -9.13856
   C       -9.46063        -3.14864        -7.01461
   C       -8.57460        -2.69634        -6.01750
   C       -7.79803        -1.52436        -6.25357
   C       -6.90182        -1.05175        -5.26884
   C       -6.78697        -1.72853        -4.08142
   C       -7.57183        -2.89256        -3.85302
   C       -8.44581        -3.37259        -4.78465
   C       -7.30403        -3.41221        -2.49934
   O       -7.95652        -4.23358        -1.90230
   C       -6.18527        -2.56944        -1.96790
   C       -5.95834        -1.48015        -2.90545
   C       -5.10665        -0.42010        -2.74424
   C       -4.92216         0.60056        -3.70279
   N       -4.72920         1.46255        -4.43508
   C       -4.30639        -0.17634        -1.60763
   N       -3.62898         0.08862        -0.71926
   C       -5.55148        -2.76592        -0.78146
   C       -5.64543        -3.95138        -0.00410
   O       -6.01850        -5.12712        -0.53861
   C       -5.99743        -6.01321         0.46176
   N       -5.62611        -5.47948         1.61268
   C       -5.38426        -4.19112         1.34319
   C       -6.35699        -7.35550         0.16871
   N       -6.55636        -8.34488         1.08747
   C       -6.38674        -8.24336         2.51716
   C       -4.91866        -8.34477         2.91694
   C       -6.94399        -9.54781         0.46534
   O       -7.19547       -10.56546         1.07861
   C       -6.96538        -9.23457        -0.94887
   C       -6.60197        -7.87773        -1.09803
   C       -6.58555        -7.55887        -2.51516
   O       -6.31158        -6.55427        -3.12895
   N       -6.95512        -8.77312        -3.13352
   C       -7.11436        -8.85754        -4.56616
   C       -8.58241        -8.78005        -4.97653
   C       -7.18461        -9.77577        -2.22395
   C       -7.53476       -11.09731        -2.57300
   C       -7.79250       -12.05361        -1.63292
   C       -8.10068       -13.40238        -1.91777
   C       -8.13038       -14.06881        -3.12829
   C       -8.44957       -15.43547        -2.90360
   C       -8.64405       -15.57843        -1.44433
   C       -8.42478       -14.36943        -0.87254
   C       -8.97536       -16.74844        -0.74997
   N       -9.24102       -17.68930        -0.14759
   C       -8.52424       -16.44486        -3.83765
   C       -8.84655       -17.81426        -3.60921
   C       -8.82207       -18.49474        -4.80761
   C       -8.42841       -17.55175        -5.84546
   C       -8.24783       -16.32938        -5.27848
   C       -7.84206       -15.17779        -5.96104
   N       -7.50370       -14.24410        -6.53921
   C       -9.06119       -19.88520        -4.95595
   C       -9.36081       -20.59584        -6.07630
   C       -9.13933       -22.07137        -6.08846
   O       -8.92707       -22.77765        -5.13235
   C       -9.17508       -22.45347        -7.51429
   C       -8.90813       -23.66605        -8.08158
   C       -8.97852       -23.79702        -9.48635
   C       -9.32182       -22.66262       -10.27857
   C       -9.38189       -22.79937       -11.68008
   C       -9.11608       -24.00487       -12.26659
   C       -8.77826       -25.12628       -11.48180
   C       -8.71121       -25.02601       -10.12047
   F       -8.52144       -26.29419       -12.08424
   F       -9.17338       -24.13284       -13.59786
   C       -9.60109       -21.42104        -9.66248
   C       -9.53411       -21.31946        -8.29849
   C       -9.79757       -20.19949        -7.39802
   C      -10.54466       -19.09159        -7.70004
   C      -11.01427       -18.17974        -6.73020
   N      -11.47240       -17.44745        -5.97465
   C      -11.01122       -18.79498        -8.99735
   N      -11.39094       -18.50750       -10.04142
   H       -7.36335         0.04688        -7.67490
   H      -10.05399        -4.03444        -6.85048
   H       -6.32960        -0.16302        -5.47985
   H       -9.02698        -4.25872        -4.58155
   H       -4.90159        -2.00633        -0.37030
   H       -5.06177        -3.50670         2.10072
   H       -6.95176        -9.07310         2.94976
   H       -6.80014        -7.29110         2.85446
   H       -4.49148        -9.27727         2.55566
   H       -4.83609        -8.31937         3.99929
   H       -4.36088        -7.50809         2.50559
   H       -6.65515        -9.77857        -4.93457
   H       -6.57057        -8.00361        -4.97989
   H       -9.14982        -9.60761        -4.55679
   H       -8.66329        -8.81569        -6.05921
   H       -9.01698        -7.84817        -4.62292
   H       -7.59213       -11.34840        -3.62209
   H       -7.75636       -11.78099        -0.58606
   H       -7.93437       -13.64826        -4.09423
   H       -8.47448       -14.13128         0.17382
   H       -9.11032       -18.23387        -2.65829
   H       -8.25218       -17.79841        -6.87647
   H       -8.91741       -20.48321        -4.06057
   H       -8.64609       -24.51344        -7.46657
   H       -9.64237       -21.95265       -12.29574
   H       -8.45147       -25.89300        -9.53347
   H       -9.85181       -20.57747       -10.28599
*
