# ORCA input file
# SCF done       -212.917535000660          0.000513947131
! CAM-B3LYP def2-SVP def2/J RIJCOSX Grid4 TightSCF
%maxcore 5000
%tddft
    Mode sTDDFT
    Ethresh 5.0
    maxcore 5000
end

%pal
  nprocs 6
  end
* xyz 0 1
   C      -10.72974        -7.88991         5.72291
   C      -11.04396        -7.87231         7.05258
   F      -11.87159        -8.79437         7.55945
   C      -10.50388        -6.88849         7.90697
   F      -10.83208        -6.90052         9.20377
   C       -9.65587        -5.93421         7.41853
   C       -9.31568        -5.92447         6.05152
   C       -9.86064        -6.91799         5.18664
   C       -9.52698        -6.92713         3.81385
   C       -8.68529        -5.96442         3.31851
   C       -8.15296        -4.97077         4.18673
   C       -8.44464        -4.94830         5.52058
   C       -7.28801        -4.05643         3.41681
   O       -6.77544        -3.03780         3.81758
   C       -7.21505        -4.64031         2.04667
   C       -8.18330        -5.72596         1.97181
   C       -8.65406        -6.31704         0.83130
   C       -9.68971        -7.27641         0.81232
   N      -10.54036        -8.04183         0.72406
   C       -8.26754        -5.98983        -0.48544
   N       -8.04147        -5.76443        -1.58914
   C       -6.46134        -4.16147         1.03583
   C       -5.65547        -2.95965         1.08807
   C       -4.60177        -2.63720         1.91694
   C       -3.83451        -3.38661         2.91298
   O       -2.99060        -2.81777         3.56983
   C       -4.08199        -4.86985         3.03753
   S       -3.99818        -1.04592         1.58396
   C       -5.10386        -0.84032         0.31238
   C       -5.93090        -1.92441         0.14129
   C       -7.00197        -2.06011        -0.82476
   N       -6.84919        -1.77962        -2.15196
   C       -5.64679        -1.35769        -2.83067
   C       -4.58779        -2.45604        -2.84834
   C       -7.98708        -2.15881        -2.90279
   O       -8.04606        -2.05639        -4.10915
   C       -8.90901        -2.66202        -1.91777
   C       -8.27977        -2.57215        -0.63536
   C       -9.23905        -3.03370         0.33924
   O       -9.22506        -3.09205         1.56029
   N      -10.34572        -3.45285        -0.41633
   C      -11.43148        -4.17861         0.20143
   C      -12.65864        -3.32100         0.49210
   C      -10.16495        -3.22058        -1.76568
   C      -11.16084        -3.47195        -2.75575
   C      -10.94000        -3.24608        -4.06444
   C      -11.93975        -3.38602        -5.10419
   C      -11.68236        -4.02767        -6.28301
   S      -13.04775        -4.11089        -7.31796
   C      -13.99524        -3.24901        -6.19584
   C      -13.29613        -2.91170        -5.06602
   C      -13.91115        -2.06566        -4.04192
   O      -15.09180        -1.90112        -3.87982
   O      -12.96277        -1.45205        -3.27261
   C      -13.34100        -0.72891        -2.19998
   C      -12.42824        -0.39576        -1.26922
   C      -12.80253         0.22477        -0.04854
   C      -12.06795         0.34207         1.08683
   C      -12.78964         0.62599         2.36750
   O      -13.90921         1.06598         2.47404
   C      -11.87576         0.18153         3.43629
   C      -12.11549         0.04012         4.77338
   C      -11.10837        -0.51785         5.59259
   C       -9.87274        -0.92177         5.00730
   C       -8.88551        -1.51633         5.81846
   C       -9.12528        -1.71179         7.14872
   C      -10.34167        -1.30519         7.73188
   C      -11.31220        -0.71440         6.97279
   F      -10.54178        -1.51459         9.04095
   F       -8.20763        -2.32016         7.91974
   C       -9.64397        -0.74544         3.62473
   C      -10.63053        -0.18960         2.85526
   C      -10.68202         0.07211         1.42000
   C       -9.56537         0.22612         0.64679
   C       -9.51548         0.53603        -0.72673
   N       -9.36550         0.78289        -1.83798
   C       -8.26433         0.23430         1.19418
   N       -7.18455         0.33343         1.56986
   H      -11.15263        -8.64986         5.08452
   H       -9.24753        -5.18993         8.08447
   H       -9.93903        -7.70295         3.18833
   H       -8.00617        -4.20801         6.17014
   H       -6.53094        -4.61888         0.05629
   H       -4.35505        -5.31421         2.08457
   H       -4.88719        -5.03636         3.75029
   H       -3.18305        -5.33978         3.42959
   H       -5.13194         0.08894        -0.22070
   H       -5.25607        -0.44852        -2.37126
   H       -5.95892        -1.12870        -3.85366
   H       -4.25246        -2.69225        -1.84095
   H       -3.73167        -2.12759        -3.43042
   H       -4.99326        -3.35675        -3.30319
   H      -11.04133        -4.55907         1.15121
   H      -11.69661        -5.02904        -0.43375
   H      -12.39427        -2.50147         1.15583
   H      -13.41462        -3.93040         0.97964
   H      -13.07957        -2.90638        -0.41976
   H      -12.12222        -3.83192        -2.41623
   H       -9.95196        -2.95609        -4.39641
   H      -10.75958        -4.48668        -6.57732
   H      -15.01377        -2.99429        -6.41319
   H      -14.39935        -0.50155        -2.11961
   H      -11.40496        -0.69426        -1.43422
   H      -13.84171         0.52280         0.04613
   H      -13.06460         0.33151         5.19663
   H       -7.94757        -1.82010         5.37707
   H      -12.23835        -0.40902         7.43390
   H       -8.71541        -1.09710         3.20506
*
