# ORCA input file
# SCF done       -240.019231973165          0.000573792290
! CAM-B3LYP def2-SVP def2/J RIJCOSX Grid4 TightSCF
%maxcore 5000
%tddft
    Mode sTDDFT
    Ethresh 5.0
    maxcore 5000
end

%pal
  nprocs 6
  end
* xyz 0 1
   C       -2.75354         3.46678         6.22786
   C       -2.56901         3.82276         7.53440
   F       -2.47242         5.11369         7.87288
   C       -2.47852         2.83903         8.54074
   F       -2.29800         3.21767         9.81170
   C       -2.57347         1.51235         8.22592
   C       -2.76387         1.11378         6.88847
   C       -2.85709         2.10724         5.87027
   C       -3.05353         1.73149         4.52208
   C       -3.15859         0.40295         4.20148
   C       -3.05800        -0.58161         5.22399
   C       -2.86362        -0.24961         6.53430
   C       -3.18098        -1.92501         4.62991
   O       -3.05474        -2.98493         5.20074
   C       -3.39044        -1.70025         3.17231
   C       -3.37977        -0.26921         2.92495
   C       -3.61379         0.35150         1.72649
   C       -3.91700        -0.30662         0.51475
   N       -4.19157        -0.76847        -0.49947
   C       -3.61055         1.75200         1.54898
   N       -3.61523         2.88062         1.34214
   C       -3.42846        -2.69121         2.23629
   C       -3.60528        -4.07950         2.47165
   C       -3.17269        -5.07926         1.62597
   C       -3.51627        -6.34619         2.18615
   C       -4.26648        -6.05728         3.41852
   C       -4.32393        -4.70968         3.57677
   C       -4.93281        -6.98371         4.23341
   N       -5.53111        -7.70489         4.89631
   C       -3.23677        -7.59506         1.67522
   C       -3.50078        -8.84826         2.28661
   C       -3.17366        -9.86527         1.40317
   C       -2.65443        -9.24793         0.19081
   C       -2.65957        -7.89889         0.35376
   C       -2.20462        -6.97708        -0.59703
   N       -1.81637        -6.24843        -1.39493
   C       -3.34695       -11.23661         1.70218
   N       -3.38491       -12.28297         0.81659
   C       -3.27715       -12.23006        -0.61704
   C       -3.64938       -13.50623         1.46070
   O       -3.76106       -14.56234         0.87113
   C       -3.73876       -13.16435         2.86420
   C       -3.55500       -11.77710         2.98251
   C       -3.57223       -11.43696         4.39777
   O       -3.42269       -10.39258         4.98586
   N       -3.79269       -12.67169         5.03981
   C       -3.90724       -12.76570         6.47116
   C       -3.89917       -13.70780         4.15426
   C       -4.13159       -15.03775         4.55338
   C       -4.28508       -16.05008         3.64525
   C       -4.65141       -17.39061         3.89283
   C       -5.44031       -17.94417         4.90435
   N       -5.87320       -17.41611         6.13650
   O       -6.88272       -17.89865         6.61598
   O       -5.22063       -16.53546         6.67571
   C       -5.94699       -19.21279         4.46253
   C       -5.43941       -19.49756         3.23760
   C       -4.52796       -18.45177         2.85860
   C       -3.60007       -18.45876         1.84289
   C       -2.65038       -17.41972         1.54268
   C       -2.19327       -17.60361         0.28198
   C       -2.77753       -18.80174        -0.26449
   N       -2.45004       -19.18570        -1.58307
   O       -1.43638       -18.71333        -2.05536
   O       -3.20754       -19.92218        -2.19573
   C       -3.53613       -19.43142         0.71650
   C       -3.96272       -20.77775         0.82662
   C       -4.11870       -21.68948        -0.17255
   C       -4.44074       -23.04440         0.07815
   C       -4.33203       -24.05907        -0.82337
   C       -5.08490       -25.33198        -0.64618
   O       -5.62452       -25.71879         0.36320
   C       -5.07747       -25.96437        -1.98083
   C       -5.73365       -27.08631        -2.39931
   C       -5.60340       -27.49671        -3.74480
   C       -4.79406       -26.73187        -4.63511
   C       -4.67409       -27.14432        -5.97742
   C       -5.32586       -28.26308        -6.41509
   C       -6.12619       -29.01846        -5.53382
   C       -6.26232       -28.64487        -4.22623
   F       -6.75494       -30.10873        -5.99102
   F       -5.21084       -28.65377        -7.69007
   C       -4.12112       -25.57770        -4.17278
   C       -4.25733       -25.20187        -2.86336
   C       -3.67061       -24.09653        -2.11093
   C       -2.55302       -23.38625        -2.45939
   C       -1.85641       -22.54681        -1.56307
   N       -1.23194       -21.91566        -0.83613
   C       -1.90364       -23.51869        -3.70517
   N       -1.35366       -23.60225        -4.70821
   H       -2.82178         4.23230         5.47073
   H       -2.50192         0.77191         9.00715
   H       -3.11437         2.50691         3.77588
   H       -2.79103        -1.01760         7.28934
   H       -3.29005        -2.42376         1.19532
   H       -2.60893        -4.93831         0.72383
   H       -4.85567        -4.18984         4.34890
   H       -3.89021        -8.97768         3.27697
   H       -2.28386        -9.76311        -0.67370
   H       -3.94093       -11.46982        -1.02945
   H       -3.57263       -13.21096        -0.99183
   H       -2.24864       -12.03640        -0.92766
   H       -3.84769       -11.75039         6.86258
   H       -3.09417       -13.36164         6.88891
   H       -4.86075       -13.21050         6.75732
   H       -4.18762       -15.23854         5.61211
   H       -4.17629       -15.79910         2.59778
   H       -6.63015       -19.80424         5.04272
   H       -5.67991       -20.36561         2.66027
   H       -2.35217       -16.63495         2.20605
   H       -1.50228       -16.98965        -0.26330
   H       -4.06603       -21.13962         1.84093
   H       -4.03229       -21.37780        -1.20357
   H       -4.87916       -23.30445         1.03635
   H       -6.34549       -27.65238        -1.71352
   H       -4.06363       -26.57927        -6.66433
   H       -6.87830       -29.23355        -3.56461
   H       -3.52240       -25.01100        -4.86799
*
