# ORCA input file
# SCF done       -236.623815137159          0.000645499443
! CAM-B3LYP def2-SVP def2/J RIJCOSX Grid4 TightSCF
%maxcore 5000
%tddft
    Mode sTDDFT
    Ethresh 5.0
    maxcore 5000
end

%pal
  nprocs 6
  end
* xyz 0 1
   C        1.09756        -1.43972        -0.25129
   C        2.06568        -1.67815         0.68350
   F        2.98430        -0.74440         0.95426
   C        2.11015        -2.90713         1.37423
   F        3.06912        -3.11184         2.28467
   C        1.18554        -3.88077         1.11935
   C        0.17562        -3.66529         0.16119
   C        0.12846        -2.42287        -0.53706
   C       -0.87686        -2.18406        -1.50086
   C       -1.80711        -3.15715        -1.76088
   C       -1.74754        -4.39925        -1.06304
   C       -0.78860        -4.65611        -0.12446
   C       -2.82607        -5.27773        -1.53825
   O       -3.10301        -6.40015        -1.17550
   C       -3.52967        -4.50633        -2.59696
   C       -2.93864        -3.17980        -2.68148
   C       -3.39017        -2.14133        -3.44391
   C       -4.55308        -2.20675        -4.24294
   N       -5.51205        -2.20684        -4.87228
   C       -2.78222        -0.86771        -3.48895
   N       -2.32752         0.18305        -3.55636
   C       -4.47543        -5.09425        -3.35997
   C       -4.84652        -6.48121        -3.14931
   C       -4.32975        -7.50036        -3.90641
   N       -3.40167        -7.29100        -4.93637
   O       -2.96708        -8.25419        -5.53319
   O       -3.08592        -6.12805        -5.16413
   C       -4.78597        -8.77762        -3.40046
   C       -5.61089        -8.53598        -2.36232
   C       -5.74828        -7.10279        -2.17336
   C       -6.54521        -6.42030        -1.28641
   C       -6.42521        -5.02328        -0.96868
   C       -7.06886        -4.77623         0.20003
   C       -7.70625        -5.98316         0.64081
   N       -8.49719        -6.03082         1.80095
   O       -8.54820        -5.02276         2.48304
   O       -9.08335        -7.06897         2.07425
   C       -7.48255        -6.99438        -0.29525
   C       -8.13628        -8.24228        -0.31095
   C       -8.40625        -8.95624        -1.44648
   C       -9.02985       -10.21209        -1.57631
   N       -9.45056       -11.11299        -0.62829
   C       -9.45555       -10.98242         0.81147
   C      -10.64493       -10.16689         1.31027
   C       -9.97404       -12.28627        -1.21654
   O      -10.40587       -13.22450        -0.58554
   C       -9.83918       -12.06372        -2.64223
   C       -9.26718       -10.80112        -2.83057
   C       -9.11353       -10.59190        -4.25577
   O       -8.66881        -9.66585        -4.89468
   N       -9.62974       -11.77558        -4.84201
   C       -9.60574       -11.92487        -6.27861
   C       -8.41477       -12.75808        -6.74544
   C      -10.05285       -12.66741        -3.89119
   C      -10.60947       -13.96328        -4.00203
   C      -10.85382       -14.71896        -5.10445
   C      -11.39993       -16.03835        -5.07201
   C      -11.56449       -16.73739        -6.30181
   N      -11.35449       -16.35100        -7.54314
   O      -11.67621       -17.38061        -8.31558
   N      -12.09053       -18.44217        -7.62438
   C      -12.03798       -18.09646        -6.35267
   C      -12.38351       -18.79376        -5.16272
   C      -12.28338       -18.05121        -3.99390
   C      -11.79264       -16.74507        -3.94208
   C      -12.85762       -20.14312        -5.14228
   C      -12.64540       -21.15025        -6.02336
   C      -13.54770       -22.34350        -5.98020
   O      -14.31474       -22.63031        -5.09319
   C      -13.32915       -23.03670        -7.26268
   C      -13.99295       -24.11274        -7.77910
   C      -13.62466       -24.59919        -9.05299
   C      -12.57857       -23.95178        -9.77399
   C      -12.22294       -24.43768       -11.04848
   C      -12.87098       -25.51734       -11.57966
   C      -13.90321       -26.15854       -10.86428
   C      -14.27335       -25.70981        -9.62755
   F      -14.52032       -27.21401       -11.40954
   F      -12.53075       -25.97876       -12.78884
   C      -11.90547       -22.84341        -9.21164
   C      -12.26888       -22.39801        -7.96858
   C      -11.73493       -21.32360        -7.13794
   C      -10.49066       -20.77044        -7.26517
   C       -9.91303       -19.91047        -6.30964
   N       -9.40017       -19.22142        -5.54797
   C       -9.60890       -21.05803        -8.32895
   N       -8.85800       -21.25189        -9.17415
   H        1.07824        -0.49390        -0.76983
   H        1.23340        -4.81571         1.65533
   H       -0.88401        -1.23674        -2.01563
   H       -0.76559        -5.60478         0.38994
   H       -4.93698        -4.57847        -4.19321
   H       -4.46750        -9.72165        -3.79733
   H       -6.06596        -9.27482        -1.73501
   H       -5.86313        -4.31413        -1.54147
   H       -7.13182        -3.84595         0.73242
   H       -8.53837        -8.55465         0.64123
   H       -8.14938        -8.52016        -2.40451
   H       -8.50785       -10.55339         1.14352
   H       -9.53129       -12.00247         1.20041
   H      -10.65268        -9.16653         0.88588
   H      -10.59443       -10.07516         2.39089
   H      -11.57350       -10.66592         1.04408
   H       -9.51579       -10.91174        -6.68196
   H      -10.55267       -12.35132        -6.61660
   H       -7.48738       -12.25414        -6.48500
   H       -8.45290       -12.87660        -7.82440
   H       -8.41402       -13.74329        -6.28510
   H      -10.84435       -14.37434        -3.02840
   H      -10.62562       -14.36587        -6.09779
   H      -12.55736       -18.52852        -3.06440
   H      -11.71437       -16.27942        -2.97241
   H      -13.52669       -20.39025        -4.32259
   H      -14.78794       -24.58624        -7.22335
   H      -11.43307       -23.96123       -11.60782
   H      -15.06524       -26.21097        -9.09326
   H      -11.12511       -22.36524        -9.78172
*
