# ORCA input file
# SCF done       -246.940401731780          0.000566356743
! CAM-B3LYP def2-SVP def2/J RIJCOSX Grid4 TightSCF
%maxcore 5000
%tddft
    Mode sTDDFT
    Ethresh 5.0
    maxcore 5000
end

%pal
  nprocs 6
  end
* xyz 0 1
   C       -7.00938        -1.98056         3.90224
   C       -7.24543        -2.63498         5.07898
   F       -7.33347        -1.95016         6.22345
   C       -7.39937        -4.03699         5.10274
   F       -7.63030        -4.65007         6.26852
   C       -7.31393        -4.76486         3.94898
   C       -7.07168        -4.11910         2.72066
   C       -6.91812        -2.70169         2.69482
   C       -6.67954        -2.03318         1.47277
   C       -6.59935        -2.75859         0.31297
   C       -6.74529        -4.17613         0.34797
   C       -6.97531        -4.84826         1.51566
   C       -6.58840        -4.71915        -1.00889
   O       -6.61247        -5.88611        -1.34434
   C       -6.30539        -3.54773        -1.87692
   C       -6.38547        -2.34360        -1.06755
   C       -6.36743        -1.06243        -1.54193
   C       -6.31125        -0.74491        -2.91702
   N       -6.31975        -0.44521        -4.02432
   C       -6.46732         0.08460        -0.72525
   N       -6.54227         1.04316        -0.09998
   C       -5.85981        -3.68049        -3.15009
   C       -5.90209        -4.92697        -3.85348
   C       -4.83081        -5.61333        -4.38314
   N       -3.49560        -5.16905        -4.33148
   O       -2.65310        -5.83125        -4.90294
   O       -3.27509        -4.13875        -3.71337
   C       -5.27367        -6.88410        -4.89881
   C       -6.60083        -7.00197        -4.64815
   C       -7.06914        -5.79362        -4.01256
   C       -8.37016        -5.41337        -3.75910
   C       -8.87511        -4.07859        -3.80241
   C      -10.23835        -4.12360        -3.75894
   C      -10.65224        -5.48308        -3.59718
   N      -11.99646        -5.85279        -3.38583
   O      -12.84258        -5.00161        -3.59127
   O      -12.23385        -6.98434        -3.00226
   C       -9.52946        -6.30934        -3.56750
   C       -9.48395        -7.68130        -3.26589
   C       -8.40584        -8.28342        -2.66854
   C       -8.37006        -9.65337        -2.36051
   N       -7.37760       -10.24570        -1.61905
   C       -6.24134        -9.58629        -1.01704
   C       -6.62686        -8.84980         0.26186
   C       -7.61480       -11.61290        -1.41430
   O       -6.87701       -12.34527        -0.79162
   C       -8.86125       -11.86955        -2.11747
   C       -9.28565       -10.66543        -2.70083
   C      -10.51285       -10.92723        -3.43019
   O      -11.20349       -10.22740        -4.13313
   N      -10.77800       -12.29188        -3.18014
   C      -11.93745       -12.93381        -3.75250
   C      -11.57197       -13.81982        -4.94061
   C       -9.80503       -12.86817        -2.40956
   C       -9.81574       -14.21268        -1.97636
   C       -8.80321       -14.75441        -1.24106
   C       -8.82844       -16.07726        -0.74768
   O       -9.87294       -16.89889        -0.97898
   C       -9.66410       -18.06511        -0.33165
   C       -8.43112       -18.01407         0.31376
   C       -7.89000       -16.73820         0.05851
   C       -6.66380       -16.21177         0.50143
   N       -5.66001       -15.78486         0.84818
   C       -7.83806       -19.12089         1.11938
   F       -8.67872       -19.54961         2.07451
   F       -7.57129       -20.19536         0.35023
   F       -6.69970       -18.78110         1.71892
   C      -10.59987       -19.13159        -0.39163
   C      -11.86857       -19.09842        -0.87414
   C      -12.55019       -20.37730        -1.25108
   O      -12.22885       -21.48987        -0.91911
   C      -13.64139       -19.96970        -2.15831
   C      -14.50780       -20.75757        -2.86080
   C      -15.48109       -20.14651        -3.68262
   C      -15.53390       -18.72386        -3.76745
   C      -16.50688       -18.12134        -4.59019
   C      -17.38898       -18.89404        -5.29233
   C      -17.33741       -20.30107        -5.20617
   C      -16.40360       -20.91513        -4.41881
   F      -18.21296       -21.03098        -5.90474
   F      -18.31232       -18.32084        -6.07063
   C      -14.62766       -17.93312        -3.02572
   C      -13.69880       -18.54683        -2.22738
   C      -12.70803       -17.99960        -1.30759
   C      -12.72192       -16.73592        -0.78099
   C      -11.99163       -16.36247         0.36870
   N      -11.45938       -16.03494         1.33044
   C      -13.47193       -15.67142        -1.31304
   N      -13.97272       -14.74329        -1.76834
   H       -6.89541        -0.90782         3.90213
   H       -7.43326        -5.83640         3.98461
   H       -6.55976        -0.96174         1.48364
   H       -7.08200        -5.92239         1.52279
   H       -5.38390        -2.84910        -3.65660
   H       -4.62442        -7.58685        -5.38481
   H       -7.24333        -7.80170        -4.96146
   H       -8.27537        -3.20448        -3.97181
   H      -10.92198        -3.29776        -3.82186
   H      -10.39176        -8.25052        -3.43793
   H       -7.57468        -7.67311        -2.34621
   H       -5.79746        -8.89433        -1.73671
   H       -5.52086       -10.37554        -0.78618
   H       -7.33857        -8.05698         0.04493
   H       -5.73738        -8.41016         0.70409
   H       -7.06838        -9.54180         0.97517
   H      -12.59004       -12.12377        -4.08922
   H      -12.46424       -13.50544        -2.98287
   H      -11.09739       -13.22592        -5.71804
   H      -12.47324       -14.26715        -5.34958
   H      -10.88875       -14.61444        -4.64782
   H      -10.67349       -14.81934        -2.23105
   H       -7.93221       -14.16700        -0.97952
   H      -10.23218       -20.10254        -0.08069
   H      -14.45438       -21.83286        -2.78586
   H      -16.56410       -17.04657        -4.66453
   H      -16.37790       -21.99209        -4.36347
   H      -14.68775       -16.85937        -3.10954
*
