# ORCA input file
# SCF done       -228.421845801814          0.000689901452
! CAM-B3LYP def2-SVP def2/J RIJCOSX Grid4 TightSCF
%maxcore 5000
%tddft
    Mode sTDDFT
    Ethresh 5.0
    maxcore 5000
end

%pal
  nprocs 6
  end
* xyz 0 1
   C        1.97569         2.61658         7.63223
   C        3.22834         2.75522         8.16070
   F        3.66150         3.95756         8.55946
   C        4.07921         1.63889         8.29326
   F        5.30149         1.80505         8.81461
   C        3.66527         0.39886         7.89468
   C        2.38017         0.22376         7.34543
   C        1.51806         1.35113         7.21241
   C        0.22300         1.19900         6.66704
   C       -0.19830        -0.04300         6.26893
   C        0.67200        -1.16087         6.39903
   C        1.92880        -1.04491         6.91978
   C        0.00613        -2.37010         5.87874
   O        0.49534        -3.47227         5.76980
   C       -1.33787        -1.92076         5.42445
   C       -1.45920        -0.49884         5.69221
   C       -2.57860         0.26994         5.51247
   C       -3.82142        -0.20447         5.03994
   N       -4.86708        -0.52132         4.68822
   C       -2.64529         1.64796         5.80974
   N       -2.75647         2.76959         6.02556
   C       -2.21032        -2.69002         4.71238
   C       -2.16624        -4.09920         4.54652
   C       -2.65416        -4.77142         3.44551
   C       -2.43534        -6.17095         3.61632
   C       -1.80908        -6.32667         4.93783
   C       -1.64986        -5.09147         5.48259
   C       -1.37617        -7.51869         5.53457
   N       -0.97407        -8.46445         6.04643
   C       -2.73163        -7.17918         2.72517
   C       -2.58512        -8.57580         2.92893
   C       -2.88595        -9.24454         1.75567
   C       -3.27021        -8.24785         0.76541
   C       -3.20689        -7.01752         1.33918
   C       -3.51352        -5.81818         0.68631
   N       -3.76976        -4.85427         0.11674
   C       -2.79884       -10.65482         1.63042
   N       -2.64580       -11.38890         0.48540
   C       -2.56931       -10.91772        -0.87704
   C       -3.94321       -10.91155        -1.54332
   C       -2.49425       -12.77150         0.75669
   O       -2.28535       -13.59681        -0.10006
   C       -2.62137       -12.85959         2.19693
   C       -2.78670       -11.55733         2.70382
   C       -2.94989       -11.66281         4.14015
   O       -3.19306       -10.84802         4.99980
   N       -2.80216       -13.04616         4.40777
   C       -2.92642       -13.51342         5.76793
   C       -1.59578       -13.42825         6.51297
   C       -2.60290       -13.76848         3.26114
   C       -2.40634       -15.16245         3.08852
   C       -1.98744       -16.06829         4.00889
   C       -1.76493       -17.44250         3.73093
   S       -0.97007       -18.40574         4.95868
   C       -0.94349       -19.83951         3.96289
   C       -1.57458       -19.57174         2.75845
   C       -2.02726       -18.23444         2.62340
   C       -2.74178       -18.06928         1.34889
   O       -3.36655       -17.11538         0.96036
   C       -2.58413       -19.38748         0.61222
   C       -2.04139       -20.37832         1.62088
   O       -2.05046       -21.58178         1.51389
   C       -0.31154       -21.02264         4.44534
   C        0.28999       -21.95287         3.66101
   C        0.50055       -21.72286         2.27582
   C        0.56287       -22.55072         1.20036
   C        0.32940       -21.89833        -0.12344
   O        0.35131       -20.70825        -0.34729
   C       -0.03545       -22.98580        -1.04199
   C       -0.43611       -22.90604        -2.34500
   C       -0.78051       -24.09145        -3.03074
   C       -0.71911       -25.33793        -2.34223
   C       -1.07203       -26.51736        -3.02876
   C       -1.46207       -26.46218        -4.33744
   C       -1.51982       -25.22877        -5.01788
   C       -1.18716       -24.06720        -4.37917
   F       -1.90521       -25.20507        -6.30024
   F       -1.79385       -27.58366        -4.98898
   C       -0.30386       -25.38760        -0.99190
   C        0.04631       -24.22816        -0.35164
   C        0.53587       -23.98569         1.00469
   C        1.03238       -24.95155         1.83745
   C        1.70056       -24.69596         3.05053
   N        2.27673       -24.54131         4.03122
   C        1.01729       -26.33269         1.54449
   N        1.03155       -27.46635         1.36815
   H        1.33711         3.48111         7.53898
   H        4.32820        -0.44538         8.00199
   H       -0.40204         2.07227         6.57406
   H        2.56795        -1.91044         7.00666
   H       -3.00763        -2.19505         4.17006
   H       -3.10204        -4.31955         2.58152
   H       -1.24763        -4.87823         6.45312
   H       -2.28448        -9.03067         3.85125
   H       -3.60128        -8.44235        -0.23626
   H       -1.91985       -11.61911        -1.40960
   H       -2.10649        -9.92880        -0.89160
   H       -4.32691       -11.92723        -1.59703
   H       -3.86328       -10.51662        -2.55236
   H       -4.65308       -10.30716        -0.98224
   H       -3.32965       -14.52795         5.76331
   H       -3.64464       -12.84914         6.25865
   H       -0.81584       -13.98736         5.99986
   H       -1.71025       -13.82290         7.51869
   H       -1.28461       -12.38897         6.58111
   H       -2.57267       -15.49040         2.06969
   H       -1.72704       -15.76740         5.01298
   H       -1.83694       -19.26679        -0.17939
   H       -3.50742       -19.72089         0.13776
   H       -0.32832       -21.16646         5.51737
   H        0.62982       -22.86781         4.11949
   H        0.50444       -20.67277         1.98835
   H       -0.48660       -21.95175        -2.84696
   H       -1.03048       -27.47010        -2.52436
   H       -1.23691       -23.13147        -4.91367
   H       -0.28157       -26.34447        -0.49582
*
