# ORCA input file
# SCF done       -240.533715530435          0.000624795009
! CAM-B3LYP def2-SVP def2/J RIJCOSX Grid4 TightSCF
%maxcore 5000
%tddft
    Mode sTDDFT
    Ethresh 5.0
    maxcore 5000
end

%pal
  nprocs 6
  end
* xyz 0 1
   C       -2.63563        -1.78347         8.03723
   C       -2.79460        -2.13574         9.34792
   F       -2.26686        -1.37917        10.31731
   C       -3.51422        -3.29735         9.69707
   F       -3.65337        -3.61739        10.98942
   C       -4.06518        -4.09013         8.72983
   C       -3.91901        -3.75369         7.36966
   C       -3.19104        -2.58018         7.01514
   C       -3.03031        -2.22368         5.65769
   C       -3.57912        -3.01559         4.68159
   C       -4.30711        -4.18495         5.04546
   C       -4.47922        -4.55311         6.34981
   C       -4.80294        -4.85313         3.83100
   O       -5.48037        -5.85401         3.75824
   C       -4.33129        -4.01390         2.69366
   C       -3.56784        -2.89334         3.22808
   C       -2.94728        -1.91614         2.50478
   C       -2.22825        -0.84316         3.07677
   N       -1.63252         0.04730         3.48690
   C       -2.92335        -1.85004         1.09339
   N       -2.84342        -1.74284        -0.04587
   C       -4.69688        -4.25655         1.41957
   C       -5.51251        -5.39331         1.04486
   S       -4.96572        -7.02309         0.94843
   C       -6.54644        -7.57940         0.48238
   C       -7.43967        -6.53419         0.37604
   C       -6.84223        -5.29076         0.70588
   C       -7.54835        -4.01836         0.73792
   O       -7.00324        -2.98882         1.10190
   C       -8.95914        -4.09794         0.30837
   C       -9.72404        -2.93451         0.31503
   C      -11.04871        -2.95761        -0.08065
   C      -11.62513        -4.14982        -0.49295
   C      -10.87488        -5.31153        -0.50804
   C       -9.54043        -5.30625        -0.10980
   C       -8.80031        -6.59225        -0.16273
   O       -9.28082        -7.59687        -0.65286
   C       -6.72048        -8.98750         0.23885
   N       -7.64879        -9.79697         0.82826
   C       -8.58072        -9.44204         1.87549
   C      -10.02625        -9.65972         1.44152
   C       -7.50483       -11.14273         0.39983
   O       -8.17660       -12.05678         0.82254
   C       -6.41220       -11.09462        -0.54564
   C       -5.93346        -9.76110        -0.59537
   C       -4.85318        -9.71264        -1.55505
   O       -4.14613        -8.80659        -1.93929
   N       -4.74337       -11.04155        -2.02074
   C       -3.75259       -11.36369        -3.01845
   C       -2.45881       -11.87684        -2.38871
   C       -5.66446       -11.87293        -1.42234
   C       -5.90842       -13.26066        -1.59991
   C       -5.19627       -14.18899        -2.28059
   C       -5.55300       -15.56825        -2.34647
   S       -4.27022       -16.71939        -2.55591
   C       -5.34335       -18.06971        -2.34163
   C       -6.65288       -17.62954        -2.17730
   C       -6.77326       -16.21725        -2.19703
   C       -8.09808       -15.57171        -2.20263
   O       -8.30752       -14.45830        -2.63894
   C       -9.18178       -16.42223        -1.66305
   C      -10.35517       -15.81917        -1.22361
   C      -11.38664       -16.58886        -0.71480
   C      -11.26492       -17.96976        -0.66295
   C      -10.11110       -18.58059        -1.11880
   C       -9.05722       -17.81473        -1.61034
   C       -7.83518       -18.49830        -2.07455
   O       -7.81760       -19.69390        -2.31260
   C       -4.75688       -19.36437        -2.38936
   C       -5.10886       -20.53127        -1.79530
   C       -4.51944       -21.79938        -2.32092
   O       -3.55492       -21.90113        -3.04028
   C       -5.40113       -22.86928        -1.81601
   C       -5.38949       -24.20191        -2.11291
   C       -6.36610       -25.04281        -1.53367
   C       -7.34463       -24.48171        -0.66192
   C       -8.32239       -25.32489        -0.09621
   C       -8.32623       -26.66189        -0.37854
   C       -7.35629       -27.21619        -1.23817
   C       -6.39652       -26.42484        -1.80441
   F       -7.38397       -28.53037        -1.49655
   F       -9.25506       -27.46154         0.16155
   C       -7.32763       -23.09956        -0.36768
   C       -6.36420       -22.30585        -0.93054
   C       -6.09366       -20.87952        -0.79142
   C       -6.53534       -20.08486         0.23140
   C       -6.08261       -18.76891         0.44593
   N       -5.71959       -17.70345         0.67192
   C       -7.47954       -20.49342         1.19518
   N       -8.26391       -20.76652         1.98737
   H       -2.08213        -0.89174         7.78762
   H       -4.61293        -4.97517         9.01332
   H       -2.47679        -1.32908         5.42253
   H       -5.03580        -5.44403         6.59821
   H       -4.44003        -3.57247         0.62024
   H       -9.25142        -2.01781         0.63546
   H      -11.63049        -2.04837        -0.07039
   H      -12.65829        -4.17269        -0.80514
   H      -11.30592        -6.24774        -0.83096
   H       -8.40914        -8.39916         2.15035
   H       -8.36322       -10.07700         2.74202
   H      -10.23115        -9.09940         0.53339
   H      -10.69807        -9.32661         2.22800
   H      -10.19731       -10.71492         1.25014
   H       -3.54273       -10.42942        -3.54855
   H       -4.17267       -12.08080        -3.72684
   H       -2.01269       -11.09237        -1.78266
   H       -1.75389       -12.15672        -3.16684
   H       -2.64279       -12.73872        -1.75088
   H       -6.79249       -13.57913        -1.06534
   H       -4.24999       -13.95032        -2.74188
   H      -10.43228       -14.74373        -1.27893
   H      -12.28845       -16.11254        -0.36112
   H      -12.07062       -18.57063        -0.26936
   H      -10.00220       -19.65497        -1.09687
   H       -3.88264       -19.44106        -3.03214
   H       -4.64752       -24.60939        -2.78264
   H       -9.06996       -24.91739         0.56631
   H       -5.66211       -26.86465        -2.46085
   H       -8.08541       -22.69857         0.28611
*
