# ORCA input file
# SCF done       -188.604850956476          0.000534155256
! CAM-B3LYP def2-SVP def2/J RIJCOSX Grid4 TightSCF
%maxcore 5000
%tddft
    Mode sTDDFT
    Ethresh 5.0
    maxcore 5000
end

%pal
  nprocs 6
  end
* xyz 0 1
   C       -3.92254         0.42480         3.73994
   S       -3.52096         0.95632         2.16795
   C       -3.76175        -0.92058         3.90801
   C       -4.06795        -1.60744         5.20152
   C       -5.46699        -2.23619         5.17122
   N       -5.76484        -2.82766         6.46540
   C       -3.33615        -1.56630         2.71688
   C       -2.97947        -3.01687         2.64006
   C       -1.48162        -3.21641         2.38029
   N       -1.20343        -4.63284         2.20365
   C       -3.17593        -0.67925         1.67152
   C       -2.77065        -0.90438         0.30857
   C       -1.91731         0.01084        -0.34257
   C       -1.50355        -0.15255        -1.71324
   N       -0.72378         0.76517        -2.28678
   C       -0.31826         1.80521        -1.58684
   C       -0.67286         1.93301        -0.20716
   N       -1.44703         1.05056         0.37032
   C       -0.17053         3.01673         0.55595
   N        0.25717         3.90634         1.13747
   C        0.48697         2.78264        -2.21414
   N        1.14312         3.58935        -2.69764
   C       -1.91242        -1.27460        -2.50215
   C       -2.78863        -2.17405        -1.84486
   C       -3.22002        -1.98392        -0.47770
   N       -4.09902        -2.91894        -0.10962
   S       -4.33056        -3.94629        -1.32249
   N       -3.34683        -3.24670        -2.38986
   C       -1.44886        -1.36654        -3.81956
   C       -1.66281        -2.29483        -4.81883
   C       -1.06489        -2.17202        -6.09824
   C       -1.37888        -3.16903        -6.97325
   C       -2.24407        -4.13342        -6.42149
   S       -2.64701        -3.73568        -4.76360
   C       -2.76467        -5.26054        -7.03720
   C       -2.53616        -5.71723        -8.35471
   C       -3.21574        -6.85070        -8.68217
   C       -4.02788        -7.36573        -7.63785
   S       -3.84768        -6.34289        -6.20585
   C       -4.82865        -8.47060        -7.56647
   C       -5.24425        -9.35660        -8.61124
   C       -5.70103       -10.63817        -8.24050
   C       -6.12022       -11.52615        -9.19698
   C       -6.16471       -11.13361       -10.54890
   C       -5.75052        -9.86246       -10.92781
   C       -5.28759        -8.99080        -9.96686
   C       -6.72705       -12.21082       -11.32528
   C       -7.03085       -13.27858       -10.46172
   C       -6.66448       -12.93216        -9.03128
   C       -5.58969       -13.93494        -8.56270
   C       -5.03802       -13.72231        -7.15896
   C       -7.89521       -12.85208        -8.10379
   C       -8.64223       -14.15700        -7.86085
   C       -7.53567       -14.44916       -10.97299
   C       -7.80746       -14.56284       -12.34640
   C       -7.51909       -13.47767       -13.18560
   C       -6.97290       -12.31399       -12.68860
   C       -8.37219       -15.80072       -12.82684
   C       -8.79711       -16.06281       -14.07686
   C       -9.36676       -17.30625       -14.48654
   S       -9.66477       -18.58404       -13.33696
   C       -9.76556       -17.67562       -15.75561
   C       -9.59812       -16.78773       -16.94812
   C       -8.13544       -16.71064       -17.40791
   N       -8.00629       -15.68251       -18.42659
   C      -10.32115       -18.98346       -15.79483
   C      -10.84221       -19.67312       -17.01608
   C       -9.71630       -20.34271       -17.81223
   N      -10.25184       -20.88607       -19.04891
   C      -10.32377       -19.57679       -14.56767
   H       -4.24011         1.13826         4.47467
   H       -4.03572        -0.88721         6.01936
   H       -3.32719        -2.38249         5.40951
   H       -5.52611        -2.95267         4.33429
   H       -6.20488        -1.45040         4.98769
   H       -5.13461        -3.60085         6.65340
   H       -6.71181        -3.18918         6.48161
   H       -3.53279        -3.49540         1.83153
   H       -3.24230        -3.51453         3.57333
   H       -0.90668        -2.75441         3.20220
   H       -1.20005        -2.70764         1.45419
   H       -1.41544        -5.13950         3.05753
   H       -0.22111        -4.77756         1.99693
   H       -0.79734        -0.54606        -4.09925
   H       -0.41852        -1.34386        -6.33062
   H       -1.01283        -3.22541        -7.98283
   H       -1.87048        -5.20108        -9.02337
   H       -3.11265        -7.35437        -9.62560
   H       -5.20282        -8.71678        -6.57998
   H       -5.70561       -10.89829        -7.19272
   H       -5.81009        -9.55358       -11.96082
   H       -5.01894        -7.98625       -10.25166
   H       -4.76307       -13.88582        -9.27702
   H       -6.01374       -14.93818        -8.62975
   H       -4.50035       -12.78104        -7.08898
   H       -4.34093       -14.52381        -6.92244
   H       -5.82951       -13.73501        -6.41441
   H       -8.58735       -12.12735        -8.54158
   H       -7.56825       -12.44679        -7.14473
   H       -9.10258       -14.51902        -8.77541
   H       -9.43341       -13.98659        -7.13330
   H       -7.98294       -14.92579        -7.46677
   H       -7.73112       -15.29946       -10.33691
   H       -7.71160       -13.55612       -14.24431
   H       -6.73705       -11.49455       -13.35134
   H       -8.46803       -16.58548       -12.08506
   H       -8.73115       -15.30959       -14.84804
   H       -9.92858       -15.77365       -16.71402
   H      -10.20715       -17.15485       -17.77476
   H       -7.80757       -17.70899       -17.74593
   H       -7.49872       -16.42558       -16.56564
   H       -8.56103       -15.92509       -19.24145
   H       -7.04099       -15.59667       -18.72518
   H      -11.35464       -18.96668       -17.67027
   H      -11.56372       -20.43698       -16.71722
   H       -9.22656       -21.09672       -17.17153
   H       -8.96383       -19.59658       -18.08038
   H      -10.94534       -21.59937       -18.84715
   H       -9.51555       -21.31835       -19.59608
   H      -10.68813       -20.55242       -14.31205
*
