# ORCA input file
# SCF done       -192.960952516948          0.000566604401
! CAM-B3LYP def2-SVP def2/J RIJCOSX Grid4 TightSCF
%maxcore 5000
%tddft
    Mode sTDDFT
    Ethresh 5.0
    maxcore 5000
end

%pal
  nprocs 6
  end
* xyz 0 1
   C      -10.15207        -7.86774        -8.77234
   C       -9.72013        -8.50702        -7.62920
   C       -8.84834        -9.61602        -7.61619
   N       -8.18548       -10.54942        -7.52068
   C      -10.07543        -8.19935        -6.31207
   N      -10.23005        -8.03203        -5.18116
   C       -9.71762        -8.20574       -10.12534
   C      -10.46010        -7.42646       -11.04632
   C      -10.27462        -7.51054       -12.40357
   C       -9.30521        -8.40226       -12.87651
   C       -8.56243        -9.16727       -11.94876
   C       -8.75187        -9.08437       -10.57317
   S       -7.41387       -10.18979       -12.75544
   C       -7.93028        -9.59636       -14.29673
   C       -8.91512        -8.67547       -14.21825
   C      -11.38941        -6.55240       -10.30187
   O      -12.19232        -5.77735       -10.78625
   C      -11.13077        -6.82242        -8.87234
   C      -11.73035        -6.14595        -7.82585
   C      -12.72236        -5.18204        -7.95959
   C      -13.26396        -4.51414        -6.87298
   C      -14.29773        -3.55298        -6.87003
   C      -14.61850        -3.07521        -5.62669
   C      -13.84300        -3.63261        -4.59659
   S      -12.70264        -4.79187        -5.24552
   C      -13.82209        -3.40529        -3.22537
   C      -14.58226        -2.58241        -2.37311
   C      -14.19968        -2.65551        -1.06023
   C      -13.11341        -3.52752        -0.81049
   S      -12.61767        -4.26959        -2.31316
   C      -12.48285        -3.79923         0.38824
   C      -11.36582        -4.63180         0.53178
   S      -10.60526        -5.33976        -0.86773
   C       -9.39839        -6.12975         0.09180
   C       -9.58285        -5.84217         1.44951
   C      -10.67655        -5.01221         1.69233
   C      -11.06529        -4.57790         3.06991
   C      -10.41601        -5.47011         4.12328
   C       -8.91748        -5.60604         3.85560
   N       -8.30286        -6.37713         4.92451
   C       -8.70271        -6.35890         2.53902
   C       -8.46664        -6.96731        -0.56175
   S       -7.45653        -8.08607         0.30561
   C       -6.80091        -8.77012        -1.15474
   C       -7.33200        -8.12342        -2.26468
   C       -8.25105        -7.11138        -1.93764
   S       -9.01946        -6.02334        -3.07954
   C       -8.39247        -6.28733        -4.70999
   O       -8.70441        -5.47185        -5.53718
   C       -7.51353        -7.44827        -5.07749
   O       -7.22190        -7.63809        -6.23018
   S       -6.86535        -8.58733        -3.90222
   C       -5.85778        -9.82480        -1.00281
   C       -5.40561       -10.65153        -1.96886
   C       -4.43957       -11.70705        -1.79602
   C       -3.67655       -11.86046        -0.62695
   C       -2.76274       -12.88057        -0.54440
   C       -2.58677       -13.77914        -1.61163
   C       -3.33464       -13.64045        -2.77201
   C       -4.24424       -12.60652        -2.85521
   C       -1.56170       -14.73355        -1.24574
   C       -1.10003       -14.42250         0.04429
   C       -1.82831       -13.21793         0.59457
   C       -0.85642       -12.05798         0.88088
   C       -0.04874       -11.64736        -0.34438
   C       -2.60629       -13.56732         1.87656
   C       -3.59220       -14.71171         1.67552
   C       -0.11268       -15.17126         0.63719
   C        0.44020       -16.25784        -0.05211
   C       -0.03507       -16.55799        -1.33325
   C       -1.02632       -15.80919        -1.93730
   C        1.49414       -17.09007         0.51084
   C        2.11370       -16.91587         1.67302
   H      -10.85532        -6.90372       -13.08103
   H       -8.15332        -9.68051        -9.90486
   H       -7.45522        -9.97989       -15.17869
   H       -9.36007        -8.19553       -15.07127
   H      -11.39740        -6.37375        -6.81925
   H      -13.09302        -4.94220        -8.94564
   H      -14.77535        -3.24198        -7.78221
   H      -15.38012        -2.33991        -5.43568
   H      -15.38514        -1.96520        -2.73562
   H      -14.66461        -2.09675        -0.26647
   H      -12.87508        -3.32571         1.27795
   H      -12.15159        -4.60441         3.17716
   H      -10.74650        -3.54023         3.21815
   H      -10.86190        -6.46492         4.10288
   H      -10.57905        -5.04796         5.11638
   H       -8.48774        -4.59012         3.75710
   H       -7.31192        -6.50177         4.74928
   H       -8.40587        -5.90209         5.81425
   H       -8.91558        -7.41772         2.71569
   H       -7.65453        -6.28769         2.23694
   H       -5.52757        -9.96180         0.01843
   H       -5.80262       -10.55786        -2.96834
   H       -3.79569       -11.16903         0.19311
   H       -3.20399       -14.32333        -3.59794
   H       -4.82976       -12.48162        -3.75443
   H       -0.17505       -12.36160         1.67859
   H       -1.43025       -11.20096         1.24042
   H        0.54737       -12.48146        -0.70779
   H        0.62151       -10.82810        -0.09404
   H       -0.70700       -11.32121        -1.14657
   H       -3.14567       -12.67870         2.21200
   H       -1.89154       -13.83794         2.65678
   H       -4.32641       -14.45665         0.91454
   H       -4.11730       -14.92126         2.60470
   H       -3.07285       -15.61454         1.36200
   H        0.23457       -14.92658         1.62908
   H        0.39141       -17.39851        -1.86280
   H       -1.37549       -16.05841        -2.92822
   H        1.78367       -17.92845        -0.11165
   H        1.88426       -16.10554         2.34347
   H        2.88447       -17.59163         2.00176
*
