# ORCA input file
# SCF done       -185.911808420280          0.000452876325
! CAM-B3LYP def2-SVP def2/J RIJCOSX Grid4 TightSCF
%maxcore 5000
%tddft
    Mode sTDDFT
    Ethresh 5.0
    maxcore 5000
end

%pal
  nprocs 6
  end
* xyz 0 1
   C       -0.58368         1.44676        -4.58509
   C       -0.82190         0.10869        -4.39472
   C        0.03908        -0.91704        -4.83670
   N        0.69510        -1.79895        -5.16888
   C       -1.95643        -0.44558        -3.76647
   N       -2.85014        -0.98145        -3.28315
   C        0.56356         2.00576        -5.29418
   C        0.41330         3.41432        -5.36188
   C        1.33270         4.23076        -5.97470
   C        2.45840         3.63036        -6.54706
   C        2.60220         2.22456        -6.47319
   C        1.67003         1.39825        -5.85476
   S        4.06655         1.70159        -7.24280
   C        4.46561         3.33480        -7.64901
   C        3.54997         4.23586        -7.23113
   C       -0.83517         3.79616        -4.68670
   O       -1.28279         4.92663        -4.57654
   C       -1.42056         2.55493        -4.17195
   C       -2.53885         2.46978        -3.37828
   C       -3.40520         3.47583        -2.93992
   S       -3.35771         5.16296        -3.36274
   C       -4.78058         5.50901        -2.41899
   C       -5.25716         4.34718        -1.78168
   C       -4.49696         3.22453        -2.07945
   S       -4.76322         1.58329        -1.50536
   C       -6.24418         1.51909        -0.53954
   O       -6.57574         0.44113        -0.13231
   C       -7.06799         2.73581        -0.19777
   O       -8.04152         2.62373         0.49665
   S       -6.68061         4.36810        -0.74853
   C       -5.24556         6.83322        -2.43350
   C       -6.28571         7.36713        -1.71711
   C       -6.72552         8.68451        -1.84863
   C       -7.77867         9.20452        -1.12418
   C       -8.34820        10.49320        -1.23850
   C       -9.40830        10.71230        -0.40820
   C       -9.71908         9.61167         0.41853
   S       -8.62727         8.28316         0.09969
   C      -10.71735         9.50631         1.36984
   C      -11.72050        10.44775         1.69705
   C      -12.56567        10.02850         2.67497
   C      -12.27648         8.73581         3.19980
   S      -10.87599         8.08006         2.36428
   C      -13.01103         8.11939         4.17368
   C      -12.81612         6.85987         4.82033
   C      -13.86496         6.38704         5.65412
   C      -13.80531         5.19974         6.33400
   C      -12.63788         4.44672         6.20334
   C      -11.57870         4.92000         5.38681
   C      -11.64451         6.10237         4.68842
   O      -10.57585         4.02162         5.46644
   C      -11.03578         3.06105         6.31624
   N      -12.24702         3.27434         6.76025
   C      -10.20604         1.93655         6.58085
   C      -10.44235         0.93567         7.45970
   C      -11.47817         0.75056         8.46080
   C      -12.04433         1.72718         9.23010
   C      -13.01124         1.47627        10.22542
   N      -13.81093         1.32270        11.03431
   C      -11.63778         3.07973         9.21246
   N      -11.28285         4.16380         9.34071
   C      -11.61766        -0.68652         8.66224
   C      -10.53044        -1.34539         8.02824
   C       -9.69138        -0.35330         7.33496
   O       -8.64984        -0.52728         6.75052
   C      -10.36364        -2.70908         8.08316
   C      -11.31609        -3.45643         8.78160
   C      -12.40464        -2.79077         9.39718
   C      -12.57001        -1.41138         9.35187
   S      -13.46048        -3.91538        10.19037
   C      -12.45620        -5.23853         9.70660
   C      -11.37902        -4.86442         8.98286
   H        1.18756         5.29934        -6.00962
   H        1.82830         0.33337        -5.82424
   H        5.37627         3.52148        -8.18423
   H        3.63011         5.29552        -7.39330
   H       -2.80296         1.48365        -3.01548
   H       -4.69898         7.48919        -3.10023
   H       -6.81880         6.75166        -1.00786
   H       -6.24082         9.33269        -2.56640
   H       -7.96362        11.21585        -1.93634
   H       -9.96373        11.63191        -0.36522
   H      -11.79606        11.39549         1.19521
   H      -13.39267        10.60532         3.04983
   H      -13.88392         8.67208         4.50064
   H      -14.75116         6.99815         5.74378
   H      -14.61146         4.85625         6.96071
   H      -10.80809         6.42954         4.09599
   H       -9.33377         1.84420         5.94482
   H       -9.52410        -3.18340         7.59922
   H      -13.41660        -0.94597         9.82920
   H      -12.74079        -6.23072         9.99852
   H      -10.64552        -5.54854         8.59644
*
