# ORCA input file
# SCF done       -205.292320969017          0.000641509957
! CAM-B3LYP def2-SVP def2/J RIJCOSX Grid4 TightSCF
%maxcore 5000
%tddft
    Mode sTDDFT
    Ethresh 5.0
    maxcore 5000
end

%pal
  nprocs 6
  end
* xyz 0 1
   C       -4.11152        -1.92991        -1.78638
   C       -2.74405        -2.00713        -1.75878
   C       -2.00741        -3.12973        -2.19190
   N       -1.35398        -4.00941        -2.53362
   C       -1.88031        -1.00344        -1.27024
   N       -1.10860        -0.24849        -0.87871
   C       -5.01297        -2.99489        -2.20174
   C       -6.34392        -2.58835        -1.94233
   C       -7.42944        -3.38084        -2.22709
   C       -7.18967        -4.63620        -2.79491
   C       -5.85556        -5.03311        -3.05398
   C       -4.75844        -4.23172        -2.76639
   S       -5.78664        -6.61734        -3.76469
   C       -7.52588        -6.72457        -3.70282
   C       -8.12954        -5.63168        -3.17824
  Br       -8.38017        -8.26805        -4.33929
   C       -6.34734        -1.23286        -1.35363
   O       -7.32934        -0.60178        -1.03263
   C       -4.92148        -0.81003        -1.32875
   C       -4.45517         0.45389        -1.14153
   C       -5.13968         1.60735        -0.62889
   C       -4.72956         2.87009        -1.09804
   C       -5.35278         3.99869        -0.63562
   C       -6.36547         3.90701         0.33965
   C       -6.74425         2.66937         0.84350
   C       -6.13757         1.53124         0.35382
   C       -6.82480         5.24162         0.64905
   C       -6.10607         6.15721        -0.14213
   C       -5.10770         5.43870        -1.01808
   C       -3.66526         5.86974        -0.69122
   C       -3.30103         5.65840         0.77341
   C       -5.39381         5.67781        -2.51239
   C       -6.80834         5.27816        -2.91507
   C       -6.35778         7.50205        -0.05276
   C       -7.32896         7.97546         0.84792
   C       -8.03143         7.04845         1.63538
   C       -7.79130         5.69423         1.53945
   C       -7.55879         9.39392         0.90595
   C       -8.31617        10.04726         1.81711
   C       -8.51907        11.45792         1.85066
   C       -9.27692        12.02817         2.90389
   C       -9.53641        13.44265         3.00412
   N      -10.02705        13.94629         4.14093
   C      -10.44530        13.13451         5.07887
   C      -10.41391        11.71359         4.87092
   N       -9.78758        11.20944         3.83949
   C      -11.01584        10.84101         5.81027
   N      -11.51355        10.16139         6.58699
   C      -10.90364        13.67080         6.30500
   N      -11.29682        14.07403         7.30313
   C       -9.20354        14.32368         1.94710
   C       -8.38955        13.77523         0.93373
   C       -8.03754        12.37571         0.88699
   N       -7.26754        12.11190        -0.17147
   S       -7.01402        13.46090        -1.00398
   N       -7.86888        14.46198        -0.08186
   C       -9.65065        15.66208         1.88425
   S       -8.87852        16.81870         0.85413
   C       -9.92126        18.11715         1.34902
   C      -10.90682        17.64289         2.21849
   C      -10.74338        16.24806         2.54315
   N      -11.61234        15.59251         3.32121
   C      -12.59042        16.29029         3.83174
   N      -12.88639        17.55813         3.54844
   C      -12.10269        18.21798         2.71888
   C      -12.59790        19.47205         2.26651
   N      -13.04870        20.45510         1.88816
   C       -9.66029        19.44065         0.89636
   C       -8.99415        19.77025        -0.28747
   C       -8.91570        21.17917        -0.38329
   C       -8.38804        22.00697        -1.35711
   C       -8.47436        23.38581        -1.14925
   C       -8.05318        24.46814        -1.92718
   C       -8.38571        25.67623        -1.25945
   C       -9.01426        25.34507        -0.06286
   C       -9.08927        23.92763         0.04512
   C       -9.61075        23.10832         1.01856
   C       -9.53122        21.72133         0.80918
   C       -9.97186        20.65198         1.58052
   C       -8.13380        27.02355        -1.71352
   C       -7.53104        27.35624        -2.85148
   H       -8.43205        -3.04237        -2.01748
   H       -3.76204        -4.57545        -2.98836
   H       -9.19348        -5.52948        -3.06640
   H       -3.43687         0.65144        -1.45861
   H       -3.94521         2.93064        -1.83903
   H       -7.50202         2.59516         1.60828
   H       -6.41033         0.57008         0.75575
   H       -3.55179         6.92594        -0.94408
   H       -2.97879         5.29995        -1.32066
   H       -3.96016         6.23212         1.42136
   H       -2.27771         5.97920         0.95290
   H       -3.38312         4.60795         1.04345
   H       -4.67336         5.10690        -3.10186
   H       -5.23990         6.73636        -2.73181
   H       -6.98092         4.22164        -2.72182
   H       -6.96083         5.46266        -3.97593
   H       -7.54411         5.85287        -2.35686
   H       -5.81395         8.21068        -0.66091
   H       -8.78579         7.40098         2.32103
   H       -8.34758         4.99640         2.14697
   H       -7.05364         9.98158         0.15154
   H       -8.81223         9.51286         2.61443
   H      -13.26410        15.78403         4.50884
   H       -8.63010        19.06574        -1.01268
   H       -7.92357        21.60598        -2.24700
   H       -7.55968        24.39508        -2.87891
   H       -9.38588        26.04169         0.66651
   H      -10.07744        23.50398         1.90896
   H      -10.42067        20.72348         2.55310
   H       -8.47975        27.80097        -1.04398
   H       -7.17001        26.61960        -3.54852
   H       -7.37741        28.38518        -3.12598
*
