# ORCA input file
# SCF done       -202.956462593269          0.000894335742
! CAM-B3LYP def2-SVP def2/J RIJCOSX Grid4 TightSCF
%maxcore 5000
%tddft
    Mode sTDDFT
    Ethresh 5.0
    maxcore 5000
end

%pal
  nprocs 6
  end
* xyz 0 1
   C       -2.01442        -0.51777         2.86193
   C       -2.72336        -1.49683         2.21329
   C       -2.35214        -2.85709         2.19060
   N       -2.10487        -3.97733         2.14072
   C       -3.89711        -1.29742         1.45654
   N       -4.84178        -1.22860         0.80619
   C       -0.75337        -0.71767         3.56400
   C       -0.26846         0.54249         3.98662
   C        0.91161         0.69215         4.67311
   C        1.65220        -0.46007         4.95539
   C        1.15758        -1.71718         4.53436
   C       -0.03683        -1.86777         3.84136
   S        2.22754        -3.00952         4.98981
   C        3.30776        -1.85807         5.73058
   C        2.89322        -0.57249         5.64024
  Br        4.88606        -2.46195         6.54511
   C       -1.21385         1.60324         3.58014
   O       -1.09679         2.78276         3.83176
   C       -2.33266         0.90044         2.90223
   C       -3.54245         1.42805         2.55718
   C       -3.94785         2.79705         2.45377
   C       -5.31770         3.08751         2.62734
   C       -5.75421         4.38126         2.53006
   C       -4.84685         5.41725         2.23089
   C       -3.50271         5.13910         2.01989
   C       -3.06304         3.83777         2.12927
   C       -5.57572         6.65960         2.16061
   C       -6.94115         6.39298         2.36455
   C       -7.14749         4.93719         2.71849
   C       -8.19491         4.23518         1.84193
   C       -7.82503         4.24947         0.36618
   C       -7.57434         4.81516         4.19909
   C       -6.60693         5.48185         5.16934
   C       -7.85914         7.41025         2.28579
   C       -7.42747         8.72897         2.06889
   C       -6.05932         8.98187         1.92331
   C       -5.13626         7.95787         1.95198
   C       -8.42752         9.77700         2.06323
   C       -8.22094        11.06974         2.36020
   C       -9.26806        12.05733         2.56186
   C       -9.01591        13.43826         2.62760
   N       -7.85814        14.14280         2.32365
   C       -7.03190        13.73131         1.20066
   C       -7.04128        14.76080         0.07418
   C       -8.04433        15.45871         2.73136
   C       -9.37652        15.61621         3.18766
   C       -9.99481        14.32411         3.12324
   C      -11.27107        13.88867         3.44410
   C      -11.55507        12.54629         3.28543
   C      -10.57088        11.65937         2.87932
   C       -9.88575        16.84219         3.58332
   C       -9.05359        17.94412         3.52504
   C       -7.73269        17.79237         3.14819
   C       -7.16278        16.55695         2.79958
   C       -5.72981        16.55450         2.65441
   C       -4.87693        15.51537         2.80853
   C       -3.47022        15.64685         2.72255
   C       -2.62493        14.59599         2.50355
   C       -1.20820        14.60346         2.43397
   C       -0.65408        13.41809         2.05794
   C       -1.59902        12.40805         1.77399
   S       -3.22074        12.98548         2.10803
   C       -1.40830        11.16826         1.20344
   C       -0.21854        10.50731         0.83073
   C       -0.42574         9.33033         0.17726
   C       -1.78887         8.99020        -0.03200
   S       -2.79583        10.21936         0.71680
   C       -2.21684         7.85216        -0.67018
   C       -3.49957         7.38410        -1.01306
   S       -3.61572         5.66308        -1.32032
   C       -5.29458         5.72881        -1.57429
   C       -5.78848         7.01160        -1.46026
   C       -4.76633         7.97668        -1.17091
   C       -5.11801         9.33608        -1.16148
   C       -6.43127         9.70922        -1.29334
   C       -7.44676         8.74776        -1.51322
   C       -7.13088         7.43055        -1.62248
   O       -6.81491        11.01168        -1.23503
   H        1.25299         1.66797         4.98149
   H       -0.37230        -2.84796         3.54671
   H        3.43820         0.26330         6.03922
   H       -4.33961         0.71884         2.36258
   H       -6.00268         2.28338         2.85661
   H       -2.81202         5.92950         1.76776
   H       -2.02934         3.61082         1.93286
   H       -9.15609         4.73440         1.98124
   H       -8.30578         3.20290         2.18050
   H       -8.61113         3.78534        -0.22530
   H       -7.68671         5.27284         0.02725
   H       -6.89993         3.70135         0.20175
   H       -7.65900         3.75466         4.44658
   H       -8.56314         5.26545         4.31005
   H       -5.61481         5.04283         5.09054
   H       -6.95914         5.35241         6.19027
   H       -6.52783         6.54734         4.96597
   H       -8.91360         7.21593         2.42409
   H       -5.71605         9.99321         1.76849
   H       -4.08550         8.16491         1.82918
   H       -9.43290         9.43426         1.85733
   H       -7.21616        11.40572         2.57843
   H       -7.45641        12.79909         0.82089
   H       -5.99960        13.53574         1.50677
   H       -8.06414        15.00457        -0.20461
   H       -6.53424        14.35129        -0.79560
   H       -6.53339        15.67421         0.37106
   H      -12.01234        14.57886         3.81587
   H      -12.53997        12.17102         3.52064
   H      -10.81148        10.60826         2.85696
   H      -10.90738        16.92759         3.91949
   H       -9.42196        18.92081         3.80040
   H       -7.08568        18.65787         3.16572
   H       -5.29131        17.53288         2.49070
   H       -5.25301        14.52627         3.02262
   H       -3.03674        16.63559         2.79485
   H       -0.64677        15.49361         2.65780
   H        0.40197        13.24964         1.94179
   H        0.75105        10.91683         1.05144
   H        0.36288         8.69504        -0.18679
   H       -1.41939         7.15547        -0.90798
   H       -5.83570         4.83331        -1.80411
   H       -4.35997        10.09393        -1.05738
   H       -8.46023         9.10029        -1.61733
   H       -7.88829         6.69413        -1.84353
   H       -6.04034        11.56681        -1.07842
*
