# ORCA input file
# SCF done       -214.958899670126          0.000788457716
! CAM-B3LYP def2-SVP def2/J RIJCOSX Grid4 TightSCF
%maxcore 5000
%tddft
    Mode sTDDFT
    Ethresh 5.0
    maxcore 5000
end

%pal
  nprocs 6
  end
* xyz 0 1
   C      -11.60582         5.32514        19.27670
   C      -11.38871         3.98016        19.43674
   C      -11.20933         3.35433        20.68725
   N      -11.05786         2.78794        21.67449
   C      -11.25370         3.04718        18.38678
   N      -11.09247         2.23283        17.59370
   C      -11.60144         6.31639        20.34942
   C      -11.70156         7.60740        19.77337
   C      -11.70566         8.75746        20.52400
   C      -11.61125         8.62796        21.91384
   C      -11.51707         7.33536        22.48132
   C      -11.50901         6.17191        21.72018
   S      -11.41437         7.40419        24.21406
   C      -11.49596         9.14495        24.15362
   C      -11.59633         9.65066        22.90154
  Br      -11.44256        10.13009        25.74861
   C      -11.79987         7.47305        18.30979
   O      -11.88746         8.38678        17.50504
   C      -11.79505         6.03640        18.03056
   C      -12.02850         5.47344        16.79851
   C      -12.16888         6.10384        15.55888
   S      -11.93586         7.78320        15.16488
   C      -12.14053         7.48680        13.45103
   C      -12.47675         6.14175        13.22118
   C      -12.47849         5.38579        14.38496
   O      -12.74193         4.05799        14.49153
   C      -13.09274         3.23851        13.48769
   O      -13.24937         2.07242        13.70864
   C      -13.32675         3.76704        12.07966
   O      -13.70770         3.04271        11.20278
   S      -13.05365         5.47667        11.70003
   C      -11.95630         8.58376        12.60118
   C      -11.62700         8.64112        11.26420
   C      -11.47298         9.84347        10.52630
   C      -11.05931         9.67036         9.23944
   C      -10.85338         8.31981         8.89019
   S      -11.19595         7.28124        10.25936
   C      -10.46158         7.77253         7.68400
   C      -10.09064         8.42930         6.48676
   C       -9.75481         7.58065         5.48039
   C       -9.84640         6.19726         5.81014
   S      -10.38154         6.04237         7.47969
   C       -9.51761         5.17272         4.96970
   C       -9.57599         3.75979         5.18394
   C       -8.87795         2.92555         4.28557
   C       -8.87527         1.56889         4.47566
   C       -9.59206         0.99498         5.54407
   C      -10.31470         1.79979         6.41581
   C      -10.29738         3.16512         6.23400
   C       -9.41047        -0.43620         5.50492
   C       -8.56625        -0.75057         4.42378
   C       -8.17525         0.49890         3.67070
   C       -8.69575         0.45723         2.22067
   C      -10.19966         0.22693         2.13480
   C       -6.64932         0.70523         3.66669
   C       -6.05501         0.75559         5.06918
   C       -8.20943        -2.05133         4.17775
   C       -8.71713        -3.08023         4.99082
   C       -9.56605        -2.74973         6.05806
   C       -9.90922        -1.44168         6.32426
   C       -8.35480        -4.43295         4.66674
   C       -8.90292        -5.56490         5.16708
   C       -8.49276        -6.88120         4.82891
   C       -7.81884        -7.35553         3.74288
   C       -7.48681        -6.80750         2.44475
   C       -8.19616        -5.87614         1.73005
   C       -7.84845        -5.44490         0.43418
   N       -7.59789        -5.03475        -0.60868
   C       -9.38654        -5.26911         2.17712
   N      -10.36767        -4.75371         2.47551
   C       -6.38659        -7.60402         1.90678
   C       -6.20776        -8.74692         2.72523
   C       -7.15687        -8.68542         3.85452
   O       -7.33217        -9.51100         4.72086
   C       -5.26147        -9.70592         2.45791
   C       -4.44427        -9.52145         1.33747
   C       -4.62077        -8.36905         0.53496
   C       -5.58472        -7.40385         0.79943
   S       -3.49307        -8.33131        -0.78629
   C       -2.81377        -9.84697        -0.25488
   C       -3.39719       -10.35478         0.85652
  Br       -1.39166       -10.60831        -1.21178
   H      -11.77944         9.72606        20.05504
   H      -11.43699         5.21056        22.20055
   H      -11.65766        10.70078        22.68140
   H      -12.12802         4.39584        16.74485
   H      -11.98678         9.54131        13.10767
   H      -11.68488        10.79884        10.97250
   H      -10.90838        10.47106         8.53792
   H      -10.07452         9.50154         6.40975
   H       -9.44364         7.89611         4.49993
   H       -9.12327         5.47805         4.00691
   H       -8.33121         3.37154         3.46689
   H      -10.88328         1.36659         7.22417
   H      -10.87825         3.78333         6.89851
   H       -8.17803        -0.34184         1.68632
   H       -8.44364         1.40204         1.73416
   H      -10.46907        -0.73134         2.57287
   H      -10.51612         0.22722         1.09461
   H      -10.74145         1.01075         2.65998
   H       -6.42348         1.63647         3.14305
   H       -6.18855        -0.11090         3.10652
   H       -6.48348         1.57626         5.64034
   H       -4.97857         0.90023         5.01396
   H       -6.25046        -0.17159         5.60349
   H       -7.56004        -2.30058         3.35038
   H       -9.94574        -3.53210         6.69583
   H      -10.55549        -1.20330         7.15514
   H       -7.54432        -4.52749         3.95371
   H       -9.66437        -5.49795         5.93099
   H       -8.68303        -7.63935         5.58426
   H       -5.15335       -10.57083         3.09327
   H       -5.67720        -6.53924         0.16322
   H       -3.10183       -11.27777         1.32106
*
