# ORCA input file
# SCF done       -195.300036024678          0.000321256550
! CAM-B3LYP def2-SVP def2/J RIJCOSX Grid4 TightSCF
%maxcore 5000
%tddft
    Mode sTDDFT
    Ethresh 5.0
    maxcore 5000
end

%pal
  nprocs 6
  end
* xyz 0 1
   C       -2.19081        -3.16030        -8.98202
   C       -2.27530        -4.34153        -8.27758
   C       -1.43977        -5.45343        -8.49754
   N       -0.79293        -6.39529        -8.62090
   C       -3.19497        -4.62787        -7.25057
   N       -3.90691        -4.95673        -6.40936
   C       -1.24110        -2.89505       -10.06238
   C       -1.46831        -1.58646       -10.55291
   C       -0.73956        -1.04192       -11.58037
   C        0.26611        -1.82760       -12.15514
   C        0.48756        -3.13220       -11.65814
   C       -0.25133        -3.68296       -10.61680
   S        1.77539        -3.93044       -12.51035
   C        1.99377        -2.51822       -13.50946
   C        1.14835        -1.50092       -13.22163
  Br        3.31720        -2.52097       -14.83966
   C       -2.57555        -0.96801        -9.79242
   O       -3.02308         0.15060        -9.95987
   C       -3.00230        -1.98534        -8.81431
   C       -4.02604        -1.81301        -7.89993
   C       -4.80492        -0.67063        -7.78081
   C       -5.84519        -0.56119        -6.87251
   C       -6.71538         0.53555        -6.71122
   C       -7.68230         0.34617        -5.76167
   C       -7.61001        -0.90719        -5.12862
   S       -6.27583        -1.84012        -5.76067
   C       -8.45242        -1.42598        -4.15148
   C       -9.62408        -0.86076        -3.61804
   C      -10.24658        -1.66150        -2.70210
   C       -9.60394        -2.89858        -2.46970
   S       -8.15139        -2.98859        -3.44100
   C      -10.05745        -3.82614        -1.54820
   C       -9.59316        -5.07763        -1.14611
   S      -10.19738        -5.58557         0.42586
   C       -9.15703        -6.97902         0.44326
   C       -8.37433        -7.02320        -0.73241
   C       -8.69375        -6.03864        -1.65841
   C       -8.28323        -6.15307        -3.09913
   C       -9.49636        -6.00264        -4.02183
   C       -7.63941        -7.52046        -3.34578
   C       -6.59164        -7.81157        -2.28550
   C       -7.24775        -8.00042        -0.91450
   C       -6.18635        -7.79724         0.17530
   C       -9.21460        -7.94019         1.44725
   C      -10.02620        -7.93753         2.56696
   C      -10.11220        -8.97585         3.51886
   C      -11.02211        -8.75087         4.51362
   C      -11.69106        -7.51860         4.39557
   S      -11.12497        -6.64600         2.99401
   C      -12.68416        -6.99817         5.21747
   C      -13.25786        -7.58396         6.36048
   C      -14.23588        -6.82027         6.93536
   C      -14.47048        -5.59634         6.27663
   S      -13.41583        -5.44535         4.89337
   C      -15.40778        -4.63831         6.62454
   C      -15.55399        -3.42656         5.96419
   C      -16.49247        -2.44268         6.20594
   C      -17.72363        -2.46077         6.94256
   C      -18.53281        -3.55005         7.17906
   C      -19.75495        -3.48419         7.87403
   N      -20.74789        -3.49378         8.45214
   C      -18.30193        -4.83729         6.65691
   N      -18.19356        -5.89513         6.22167
   C      -18.09440        -1.07037         7.20907
   C      -17.22145        -0.22368         6.48152
   C      -16.22465        -1.05556         5.77157
   O      -15.34729        -0.67870         5.02336
   C      -17.33374         1.14401         6.50254
   C      -18.34798         1.70419         7.28842
   C      -19.20568         0.85067         8.01933
   C      -19.09846        -0.53568         7.99058
   S      -20.37859         1.75132         8.93214
   C      -19.71077         3.24288         8.32428
   C      -18.66368         3.07741         7.48254
  Br      -20.45823         4.87808         8.86093
   H       -0.93871        -0.04176       -11.93218
   H       -0.04239        -4.68303       -10.27595
   H        1.14458        -0.55868       -13.73860
   H       -4.25264        -2.63067        -7.22644
   H       -4.61093         0.16950        -8.43174
   H       -6.60933         1.42662        -7.30372
   H       -8.43235         1.07372        -5.50866
   H       -9.98736         0.10313        -3.92443
   H      -11.15802        -1.40106        -2.19363
   H      -10.89473        -3.46589        -0.95843
   H       -7.54829        -5.37957        -3.34153
   H      -10.23426        -6.76988        -3.79495
   H       -9.18087        -6.12237        -5.05502
   H       -9.97334        -5.03392        -3.91932
   H       -7.18542        -7.52570        -4.33677
   H       -8.40903        -8.29590        -3.32020
   H       -5.89210        -6.97450        -2.24163
   H       -6.02456        -8.70704        -2.54214
   H       -7.64433        -9.02049        -0.84101
   H       -5.81072        -6.77693         0.13862
   H       -5.35401        -8.47530         0.00211
   H       -6.57786        -7.97715         1.17204
   H       -8.59266        -8.81628         1.32372
   H       -9.50831        -9.86263         3.43984
   H      -11.22326        -9.43834         5.31489
   H      -12.94610        -8.54413         6.72993
   H      -14.79733        -7.10458         7.80714
   H      -16.02495        -4.86118         7.48296
   H      -14.79699        -3.16249         5.23137
   H      -16.66037         1.76548         5.93334
   H      -19.77322        -1.14531         8.56834
   H      -18.13344         3.88831         7.01740
*
