# ORCA input file
# SCF done       -147.954192974448          0.000449126194
! CAM-B3LYP def2-SVP def2/J RIJCOSX Grid4 TightSCF
%maxcore 5000
%tddft
    Mode sTDDFT
    Ethresh 5.0
    maxcore 5000
end

%pal
  nprocs 6
  end
* xyz 0 1
   C        6.32775       -11.26341         3.42061
   C        6.82419       -11.66756         2.24419
   C        7.55640       -12.87001         1.96372
   C        7.92990       -13.01285         0.67376
   C        7.52986       -11.94526        -0.17750
   S        6.64872       -10.73552         0.74942
   C        7.75575       -11.81555        -1.52145
   C        8.43781       -12.70850        -2.39136
   C        8.48984       -12.30595        -3.68435
   C        7.84863       -11.06251        -3.93779
   S        7.18125       -10.42240        -2.42279
   C        7.72059       -10.42123        -5.12672
   N        7.08445        -9.22636        -5.25740
   C        6.79452        -8.57726        -6.43608
   C        7.11410        -8.99587        -7.69560
   S        6.50600        -7.93625        -8.90658
   C        5.82613        -6.89780        -7.71970
   C        6.05689        -7.34143        -6.45020
   N        5.63864        -6.70941        -5.29148
   C        4.55850        -5.87607        -5.22608
   C        4.34279        -4.99624        -4.22038
   C        3.17075        -4.22134        -4.03229
   C        1.92847        -4.42184        -4.56990
   C        0.76614        -3.65133        -4.30045
   C       -0.38502        -4.14139        -4.83817
   C       -0.21189        -5.33056        -5.57748
   S        1.48544        -5.77569        -5.60585
   C       -1.15417        -6.13168        -6.18769
   C       -2.55247        -5.98493        -6.28486
   C       -3.18201        -7.02272        -6.90959
   C       -2.32828        -8.06134        -7.34882
   S       -0.66530        -7.63060        -6.95272
   C       -2.70812        -9.24117        -7.94617
   C       -1.88406       -10.29411        -8.35608
   N       -0.51733       -10.32090        -8.30812
   C        0.02331       -11.49182        -8.74805
   C       -1.06764       -12.31051        -9.11816
   C       -2.26752       -11.55634        -8.87894
   N       -3.48005       -12.05585        -9.12846
   C       -3.48586       -13.28152        -9.60685
   C       -2.31169       -14.02218        -9.84196
   N       -1.10503       -13.55733        -9.60571
   C        1.42235       -11.69260        -8.77843
   C        2.01875       -12.85440        -9.13988
   C        3.42645       -13.08644        -9.19357
   C        4.48018       -12.18432        -9.35405
   C        4.34718       -10.72575        -9.60939
   C        5.74053       -12.87192        -9.30346
   C        5.45294       -14.21162        -9.12379
   C        4.00539       -14.38954        -9.07864
   C        3.50436       -15.65194        -8.93496
   C        4.42516       -16.72078        -8.84621
   C        5.76386       -16.46911        -8.89373
   O        6.28975       -15.25720        -9.02406
   C        7.04122       -12.25978        -9.43435
   C        8.20196       -12.84342        -9.14801
   H        6.45557       -11.86230         4.30484
   H        5.78832       -10.33946         3.51961
   H        7.76880       -13.57528         2.74782
   H        8.48342       -13.85300         0.29203
   H        8.86532       -13.62470        -2.02531
   H        8.96088       -12.85687        -4.47932
   H        8.13806       -10.85340        -6.02206
   H        6.64934        -8.86715        -4.41747
   H        7.64441        -9.87713        -7.98898
   H        5.30585        -6.01330        -8.02415
   H        6.26258        -6.72268        -4.49620
   H        3.87205        -5.97922        -6.05060
   H        5.12484        -4.85856        -3.48317
   H        3.24840        -3.40260        -3.32819
   H        0.81997        -2.76452        -3.69290
   H       -1.35497        -3.69563        -4.70497
   H       -3.05709        -5.12373        -5.88407
   H       -4.24569        -7.08031        -7.06148
   H       -3.76556        -9.40099        -8.10148
   H        0.04538        -9.55178        -7.97969
   H       -4.45760       -13.70785        -9.81602
   H       -2.36642       -15.02836       -10.23586
   H        2.01427       -10.85165        -8.44705
   H        1.37792       -13.69314        -9.37439
   H        3.41612       -10.51861       -10.13208
   H        5.17324       -10.35838       -10.21402
   H        4.34980       -10.16727        -8.67193
   H        2.44371       -15.84508        -8.89525
   H        4.07975       -17.73476        -8.73945
   H        6.51744       -17.24016        -8.82748
   H        7.03855       -11.24110        -9.80004
   H        8.25916       -13.85216        -8.77807
   H        9.13835       -12.32785        -9.28138
*
