# ORCA input file
# SCF done       -184.108894832643          0.000713883628
! CAM-B3LYP def2-SVP def2/J RIJCOSX Grid4 TightSCF
%maxcore 5000
%tddft
    Mode sTDDFT
    Ethresh 5.0
    maxcore 5000
end

%pal
  nprocs 6
  end
* xyz 0 1
   C      -13.64714        -3.97347        -1.95051
   C      -13.28529        -4.93202        -2.89219
   C      -11.90403        -5.21991        -3.16262
   N      -11.57676        -6.15291        -4.07602
   C      -12.52934        -6.78158        -4.70308
   C      -13.88979        -6.49651        -4.43623
   N      -14.25340        -5.60521        -3.56327
   C      -10.84867        -4.55469        -2.49933
   C      -11.22891        -3.58469        -1.54990
   C      -12.62742        -3.30556        -1.28505
   N      -12.76905        -2.35574        -0.34832
   S      -11.32237        -1.87888         0.13334
   N      -10.42672        -2.82813        -0.79645
   C       -9.49529        -4.87693        -2.79332
   C       -8.36010        -4.30654        -2.23776
   C       -7.19463        -4.87134        -2.74317
   C       -7.44834        -5.88260        -3.69200
   S       -9.12135        -6.12848        -3.96525
   C       -6.20327        -6.39971        -4.12488
   C       -5.16698        -5.72133        -3.45774
   C       -5.75944        -4.73261        -2.56872
   C       -5.10135        -3.86523        -1.74686
   C       -3.69324        -3.83143        -1.67059
   N       -2.54846        -3.80633        -1.60803
   C       -5.77873        -2.94393        -0.92028
   N       -6.31326        -2.18917        -0.24230
   C       -3.89982        -6.18140        -3.80848
   C       -3.96063        -7.20762        -4.73535
   S       -5.61453        -7.60186        -5.18616
   C       -2.87995        -7.93522        -5.29080
   C       -2.94265        -8.98498        -6.18998
   C       -1.67861        -9.48971        -6.49115
   C       -0.64458        -8.81567        -5.81806
   S       -1.22773        -7.55944        -4.81813
   C        0.58960        -9.41692        -6.16728
   C        0.33773       -10.47282        -7.06075
   C       -1.09513       -10.54954        -7.29855
   C       -1.75348       -11.43402        -8.10135
   C       -1.07456       -12.42752        -8.83773
   N       -0.52374       -13.23554        -9.43643
   C       -3.15657       -11.41443        -8.24696
   N       -4.29705       -11.40266        -8.36461
   C        1.49533       -11.14879        -7.44340
   C        2.62566       -10.61705        -6.84848
   S        2.25059        -9.25175        -5.80449
   C        3.96291       -11.06542        -6.97741
   C        5.09247       -10.53389        -6.37949
   C        6.24033       -11.25318        -6.70405
   C        5.98481       -12.34258        -7.55672
   S        4.33081       -12.47499        -7.96305
   C        7.19953       -13.02319        -7.81414
   C        8.22899       -12.35643        -7.11915
   C        7.66492       -11.22376        -6.40626
   C        8.32345       -10.32222        -5.62235
   C        9.71561       -10.38473        -5.40185
   N       10.84590       -10.42093        -5.21279
   C        7.65153        -9.26191        -4.97880
   N        7.10316        -8.40186        -4.45459
   C        9.46971       -12.95934        -7.29208
   C        9.39320       -14.07678        -8.10944
   S        7.76347       -14.38882        -8.68079
   C       10.46018       -14.93695        -8.48833
   C       10.22236       -16.04460        -9.33260
   C       11.26862       -16.94213        -9.73717
   N       10.97634       -17.98786       -10.55066
   C        9.74504       -18.14061       -10.93697
   C        8.71297       -17.25835       -10.53734
   N        8.96118       -16.24488        -9.75818
   C       12.57897       -16.75660        -9.30701
   C       12.83794       -15.67525        -8.47490
   C       11.79144       -14.76062        -8.05989
   N       12.26739       -13.80021        -7.26321
   S       13.84147       -14.01957        -7.05993
   N       14.02564       -15.32974        -7.95572
   H      -14.68382        -3.76457        -1.75069
   H      -12.23282        -7.52390        -5.43051
   H      -14.68030        -7.01872        -4.95804
   H       -8.41713        -3.52477        -1.50265
   H       -2.97144        -5.80636        -3.41613
   H       -3.87058        -9.35377        -6.58883
   H        1.53204       -11.98844        -8.11406
   H        5.06010        -9.66950        -5.74055
   H       10.39763       -12.63253        -6.85966
   H        9.53815       -18.98145       -11.58509
   H        7.69022       -17.39131       -10.86039
   H       13.35793       -17.43314        -9.61321
*
