# ORCA input file
# SCF done       -197.351420465105          0.000716179635
! CAM-B3LYP def2-SVP def2/J RIJCOSX Grid4 TightSCF
%maxcore 5000
%tddft
    Mode sTDDFT
    Ethresh 5.0
    maxcore 5000
end

%pal
  nprocs 6
  end
* xyz 0 1
   C       -9.79268        11.02709        -0.50103
   C       -8.79494        11.88914        -0.13223
   C       -8.97791        13.27762         0.04393
   N       -9.06194        14.41092         0.20456
   C       -7.46506        11.52534         0.17127
   N       -6.37548        11.31426         0.46600
   C      -11.19092        11.39022        -0.69409
   C      -11.93508        10.20747        -0.92048
   C      -13.29282        10.21364        -1.12921
   C      -13.94609        11.45000        -1.12989
   C      -13.19077        12.62914        -0.92341
   C      -11.82021        12.62088        -0.69873
   S      -14.18936        14.04806        -0.99302
   C      -15.58939        13.05278        -1.28956
   C      -15.32516        11.72532        -1.33642
  Br      -17.26811        13.85802        -1.51394
   C      -11.01489         9.05932        -0.97351
   O      -11.31201         7.93109        -1.33911
   C       -9.67709         9.58777        -0.68823
   C       -8.48334         8.92127        -0.78246
   C       -8.16363         7.54928        -0.83659
   S       -6.63482         7.19645        -1.63837
   C       -6.81004         5.53233        -1.33090
   C       -7.93761         5.24229        -0.61551
   C       -8.71923         6.37997        -0.31689
   C       -9.96121         6.29360         0.49482
   C      -10.30322         4.89560         1.03246
   C       -9.84523         3.82911         0.02699
   C       -8.33606         3.87602        -0.16907
   C       -9.76621         4.61369         2.42105
   C       -8.61852         5.13893         2.85424
   C      -10.57649         3.73301         3.25665
   C      -11.53855         2.89775         2.76936
   C      -12.36116         2.05935         3.53259
   C      -12.30404         2.06240         4.99672
   C      -11.41968         2.79797         5.70314
   S      -10.25366         3.83666         4.98821
   C      -13.33305         1.17174         5.40608
   C      -13.98353         0.64777         4.28555
   C      -14.99292        -0.27189         4.65091
   C      -15.08809        -0.40668         5.99941
   S      -13.96019         0.56165         6.88574
   C      -13.37258         1.19494         3.09933
   C      -13.67645         0.91148         1.73564
   C      -14.84400         0.39426         1.29385
   C      -15.20095         0.05435        -0.04599
   S      -16.90208        -0.23688        -0.33581
   C      -16.60036        -0.64573        -1.97082
   C      -15.27825        -0.56892        -2.28810
   C      -14.46878        -0.15422        -1.20077
   C      -12.97538        -0.06571        -1.30938
   C      -12.42261        -0.41524        -2.70210
   C      -13.28284        -1.48372        -3.38517
   C      -14.69575        -0.95432        -3.60989
   C      -12.26191         0.79708        -3.59654
   C      -11.59074         0.72009        -4.74704
   C      -12.91958         2.03361        -3.22114
   C      -12.43342         3.29274        -3.27802
   C      -11.09738         3.82326        -3.50733
   C       -9.90901         3.15263        -3.36997
   C       -8.64510         3.71474        -3.63725
   N       -7.58535         4.09741        -3.86028
   C       -9.76453         1.85296        -2.84200
   N       -9.52306         0.85866        -2.31998
   C      -11.23131         5.25562        -3.73266
   C      -12.59073         5.62866        -3.57401
   C      -13.38163         4.44256        -3.20355
   O      -14.55682         4.38634        -2.92436
   C      -13.02306         6.92533        -3.70835
   C      -12.06475         7.90982        -3.96243
   C      -10.70245         7.53625        -4.05981
   C      -10.26930         6.22207        -3.97066
   S       -9.67175         8.92194        -4.24450
   C      -11.06438         9.96906        -4.18621
   C      -12.24350         9.31596        -4.05963
  Br      -10.83325        11.82978        -4.25439
   H      -13.83266         9.29322        -1.28849
   H      -11.28886        13.54592        -0.55409
   H      -16.07147        10.97137        -1.50811
   H       -7.60781         9.55344        -0.88715
   H       -6.07885         4.83984        -1.69885
   H      -10.78628         6.60181        -0.15973
   H       -9.93400         7.02296         1.30914
   H      -11.39600         4.85784         1.09645
   H      -10.34680         4.03078        -0.92187
   H      -10.12693         2.82841         0.35518
   H       -8.01592         3.13053        -0.89948
   H       -7.84150         3.64064         0.77817
   H       -8.22781         4.92154         3.83355
   H       -8.02728         5.79820         2.24432
   H      -11.69881         2.87107         1.70305
   H      -11.37788         2.78754         6.78089
   H      -15.61416        -0.81999         3.96652
   H      -15.76473        -1.03052         6.55021
   H      -12.90451         1.16859         1.02633
   H      -15.63855         0.24352         2.01179
   H      -17.41424        -0.93008        -2.60784
   H      -12.54234        -0.74828        -0.57109
   H      -12.63584         0.94090        -1.04713
   H      -11.41380        -0.81963        -2.56503
   H      -13.32445        -2.36774        -2.74555
   H      -12.83459        -1.77190        -4.33649
   H      -15.32152        -1.71447        -4.08150
   H      -14.66408        -0.09167        -4.28267
   H      -11.50033         1.56282        -5.41228
   H      -11.13681        -0.19890        -5.07433
   H      -13.96073         1.95447        -2.91978
   H      -14.06499         7.17595        -3.58492
   H       -9.22173         5.98950        -4.06593
   H      -13.19744         9.80874        -4.01128
*
