# ORCA input file
# SCF done       -194.599194211706          0.000297159322
! CAM-B3LYP def2-SVP def2/J RIJCOSX Grid4 TightSCF
%maxcore 5000
%tddft
    Mode sTDDFT
    Ethresh 5.0
    maxcore 5000
end

%pal
  nprocs 6
  end
* xyz 0 1
   C       -5.75817         3.27300         4.61296
   C       -5.61930         3.78727         5.87160
   F       -5.75036         5.10632         6.07922
   C       -5.33858         2.94346         6.96328
   F       -5.20812         3.47466         8.18904
   C       -5.19997         1.59580         6.78185
   C       -5.33798         1.03577         5.49756
   C       -5.62215         1.88796         4.39246
   C       -5.76766         1.34806         3.09319
   C       -5.63535        -0.00212         2.90661
   C       -5.35366        -0.84400         4.01564
   C       -5.20460        -0.35433         5.27971
   C       -5.27275        -2.24848         3.55777
   O       -5.03040        -3.20232         4.27260
   C       -5.54963        -2.21483         2.11226
   C       -5.73765        -0.83788         1.71140
   C       -5.95553        -0.34922         0.44285
   C       -6.03738        -1.10278        -0.74377
   N       -6.11606        -1.63471        -1.76108
   C       -6.12135         1.01700         0.13995
   N       -6.26695         2.10939        -0.18518
   C       -5.67219        -3.27747         1.24088
   C       -5.53191        -4.65677         1.40504
   N       -5.78535        -5.47218         0.30320
   C       -5.60560        -6.75951         0.66477
   C       -5.66733        -8.07179         0.21414
   C       -5.31333        -8.87647         1.30658
   N       -5.03489        -8.07672         2.39329
   C       -5.21494        -6.77418         2.03609
   C       -5.16839        -5.47452         2.49835
   C       -5.23732       -10.29068         1.40055
   C       -5.60368       -11.13854         0.40697
   C       -5.57504       -12.55339         0.46375
   N       -6.08216       -13.29627        -0.58625
   C       -5.97025       -14.61349        -0.28201
   C       -6.24065       -15.89820        -0.74021
   C       -5.78549       -16.76967         0.25587
   N       -5.24474       -16.03222         1.29208
   C       -5.35672       -14.71083         0.99232
   C       -5.11249       -13.42294         1.45962
   C       -5.83129       -18.18688         0.30783
   C       -6.44787       -18.96294        -0.61745
   C       -6.52875       -20.37880        -0.59755
   N       -7.27947       -21.03746        -1.54880
   C       -7.20887       -22.37369        -1.31245
   C       -7.65181       -23.60984        -1.75103
   C       -7.07385       -24.56141        -0.88807
   N       -6.32001       -23.89676         0.06836
   C       -6.37680       -22.56503        -0.17570
   C       -5.95587       -21.31682         0.27158
   C       -7.20578       -25.96148        -0.84474
   C       -7.78244       -26.76633        -1.79139
   C       -8.08802       -26.38541        -3.10603
   C       -8.86805       -27.05940        -4.01377
   C       -8.74249       -26.77005        -5.45648
   O       -8.13966       -25.84876        -5.96774
   C       -9.47859       -27.85596        -6.14105
   C       -9.60280       -28.10222        -7.47668
   C      -10.34410       -29.22831        -7.90247
   C      -10.93947       -30.08053        -6.92873
   C      -11.67347       -31.20361        -7.35892
   C      -11.81315       -31.46609        -8.69298
   C      -11.22559       -30.62189        -9.65463
   C      -10.50549       -29.52593        -9.26916
   F      -11.37840       -30.90283       -10.95802
   F      -12.51449       -32.53486        -9.09972
   C      -10.79948       -29.79473        -5.55025
   C      -10.08406       -28.69477        -5.16217
   C       -9.81047       -28.13186        -3.83930
   C      -10.49463       -28.44731        -2.68864
   C      -10.45362       -27.67349        -1.51229
   N      -10.51300       -27.04572        -0.55201
   C      -11.41327       -29.50928        -2.58827
   N      -12.15239       -30.37730        -2.44607
   H       -5.97301         3.93314         3.78714
   H       -4.98516         0.96276         7.62855
   H       -5.98456         2.02178         2.28062
   H       -4.99050        -1.01840         6.10338
   H       -5.94416        -3.00643         0.22782
   H       -6.05518        -5.12770        -0.60285
   H       -5.92378        -8.41629        -0.76646
   H       -4.77010        -8.41659         3.30159
   H       -4.92038        -5.11081         3.47363
   H       -4.88380       -10.69464         2.33893
   H       -5.97758       -10.71779        -0.51685
   H       -6.48549       -12.90241        -1.41855
   H       -6.69617       -16.18163        -1.66675
   H       -4.86201       -16.42880         2.13278
   H       -4.65969       -13.13175         2.38545
   H       -5.35371       -18.65490         1.15770
   H       -6.94597       -18.48015        -1.44712
   H       -7.79622       -20.58463        -2.28265
   H       -8.34553       -23.81273        -2.53970
   H       -5.80569       -24.35454         0.80103
   H       -5.31922       -21.09454         1.10337
   H       -6.85555       -26.43435         0.06467
   H       -7.96201       -27.79797        -1.51878
   H       -7.56414       -25.52621        -3.50996
   H       -9.14303       -27.44718        -8.20110
   H      -12.13261       -31.85874        -6.63514
   H      -10.06140       -28.88908       -10.01817
   H      -11.25898       -30.45864        -4.83556
*
