# ORCA input file
# SCF done       -215.891289634099          0.002207315271
! CAM-B3LYP def2-SVP def2/J RIJCOSX Grid4 TightSCF
%maxcore 5000
%tddft
    Mode sTDDFT
    Ethresh 5.0
    maxcore 5000
end

%pal
  nprocs 6
  end
* xyz 0 1
   C       -5.41044        16.98701         4.25875
   C       -4.85966        17.05663         3.01567
   C       -4.51372        15.77828         2.53639
   C       -4.82492        14.76369         3.44945
   S       -5.52739        15.37257         4.87985
   C       -4.44387        13.51199         2.88677
   C       -3.88532        13.74571         1.62362
   C       -3.91565        15.17947         1.35824
   C       -3.47674        15.81413         0.23283
   C       -2.90897        15.11025        -0.84991
   N       -2.44907        14.53790        -1.73074
   C       -3.56080        17.21328         0.07569
   N       -3.62508        18.35080        -0.05763
   C       -3.47398        12.57390         0.98658
   C       -3.72844        11.45120         1.75109
   S       -4.47672        11.85395         3.28888
   C       -3.44208        10.08960         1.43612
   C       -3.89644         9.04797         2.20349
   C       -3.59737         7.70555         1.97973
   C       -2.65374         7.30572         0.92976
   C       -2.12446         8.16513         0.03021
   S       -2.44755         9.84662         0.01267
   C       -2.45516         5.90908         1.11166
   C       -3.21485         5.46553         2.19504
   C       -3.05710         4.08118         2.42718
   C       -2.19370         3.52276         1.53897
   S       -1.54457         4.64205         0.38788
   C       -3.95320         6.57538         2.73474
   C       -4.78530         6.51410         3.87830
   C       -5.81298         7.34710         4.18138
   C       -6.44900         7.33140         5.46149
   C       -7.63762         7.93641         5.75703
   C       -8.16837         7.89165         7.07751
   C       -9.41045         8.40841         7.40817
   C       -9.91052         8.31622         8.71477
   N      -10.30675         8.21574         9.78941
   C      -10.23498         9.02541         6.45573
   N      -10.90372         9.53572         5.67211
   C       -7.31135         7.30516         8.07205
   C       -6.12958         6.76750         7.70607
   O       -5.73487         6.67815         6.41821
   C       -5.10938         6.26541         8.63371
   C       -3.76312         6.56404         8.38298
   C       -3.38826         7.45094         7.23633
   O       -3.84581         8.56772         7.11193
   C       -2.43662         6.85399         6.29083
   C       -2.21245         5.50374         6.19605
   S       -1.16075         5.10245         4.91238
   C       -1.02269         6.75293         4.45998
   C       -1.73369         7.58116         5.27284
   C       -1.73064         9.05470         5.09270
   O       -1.83453         9.55286         3.98923
   C       -1.55677         9.86126         6.31853
   C       -0.88368         9.36814         7.43469
   C       -0.74547        10.15600         8.56057
   C       -1.27775        11.43578         8.58542
   C       -1.93244        11.93808         7.47248
   C       -2.06319        11.15914         6.34072
   C       -2.78596         6.09004         9.24940
   C       -3.12621         5.29661        10.32611
   C       -4.45715         4.93213        10.53804
   C       -5.44575         5.45547         9.70572
   C       -4.79925         4.00113        11.59416
   C       -5.72030         3.01953        11.52822
   C       -6.19278         2.35234        12.78224
   O       -5.65232         2.38735        13.85982
   C       -7.46848         1.71064        12.41498
   C       -8.37701         1.08893        13.22331
   C       -9.56303         0.57382        12.65513
   C       -9.79078         0.72326        11.25529
   C      -10.98246         0.21812        10.69649
   C      -11.90141        -0.41103        11.48848
   C      -11.67320        -0.56183        12.87223
   C      -10.52936        -0.07963        13.44457
   F      -12.58987        -1.18379        13.62236
   F      -13.02995        -0.89346        10.95717
   C       -8.83019         1.36458        10.44203
   C       -7.67858         1.84299        11.01125
   C       -6.52063         2.50732        10.42378
   C       -6.16503         2.45121         9.10419
   C       -4.94605         2.90596         8.56030
   N       -3.96882         3.19999         8.03344
   C       -6.96569         1.85225         8.10605
   N       -7.58001         1.39225         7.25338
   H       -5.76568        17.79517         4.86592
   H       -4.71264        17.97541         2.47803
   H       -3.02043        12.52800         0.01322
   H       -4.49086         9.29974         3.07050
   H       -1.45041         7.84798        -0.75008
   H       -3.55122         3.52593         3.20383
   H       -1.88517         2.49750         1.47965
   H       -4.57331         5.70583         4.56898
   H       -6.20095         8.05124         3.46321
   H       -8.18738         8.44257         4.97984
   H       -7.59315         7.35429         9.11145
   H       -2.63819         4.72370         6.79931
   H       -0.40212         7.03594         3.63278
   H       -0.45444         8.37591         7.41320
   H       -0.22390         9.77191         9.42525
   H       -1.17890        12.04172         9.47325
   H       -2.34255        12.93681         7.49073
   H       -2.57500        11.52883         5.46516
   H       -1.75274         6.35149         9.07750
   H       -2.35940         4.91173        10.98077
   H       -6.48465         5.22310         9.88987
   H       -4.28787         4.11606        12.54385
   H       -8.19398         0.99477        14.28280
   H      -11.17154         0.32287         9.63956
   H      -10.37095        -0.20181        14.50460
   H       -9.03362         1.47353         9.38869
*
