# ORCA input file
# SCF done       -195.263598792350          0.011053963157
! CAM-B3LYP def2-SVP def2/J RIJCOSX Grid4 TightSCF
%maxcore 5000
%tddft
    Mode sTDDFT
    Ethresh 5.0
    maxcore 5000
end

%pal
  nprocs 6
  end
* xyz 0 1
   C        8.50712         4.10740         3.08984
   C        7.57133         4.58346         2.22403
   S        6.52194         3.31865         1.69809
   C        7.33220         2.12126         2.67336
   C        6.91365         0.70025         2.68540
   C        8.36383         2.70403         3.34405
   C        9.38913         2.27263         4.29352
   O        9.43202         1.23358         4.92064
   C       10.29684         3.45725         4.43376
   C        9.64414         4.61222         3.83132
   C       10.00872         5.93092         3.90196
   C        9.25634         6.92923         3.24876
   N        8.64759         7.75134         2.72853
   C       11.10102         6.44240         4.62805
   N       11.97465         6.91564         5.20380
   C       11.53088         3.44206         5.00866
   C       12.28819         2.28378         5.33845
   C       13.11225         2.15189         6.42701
   C       13.55520         0.78661         6.49970
   C       14.42101         0.27373         7.47364
   N       15.12396        -0.14879         8.27751
   C       12.98845         0.07180         5.46141
   C       12.22010         0.96779         4.67189
   C       11.61283         0.71467         3.45547
   C       10.96456        -0.54306         3.04693
   C       10.35999        -0.31120         1.82240
   C       10.63279         1.03207         1.42887
   C       11.37498         1.65663         2.41710
   C       10.13885         1.63685         0.26497
   N        9.69671         2.14289        -0.66653
   C       10.81921        -1.67052         3.87178
   C       10.30632        -2.86329         3.44213
   C       10.13894        -4.01516         4.23414
   C        9.73998        -5.21158         3.63861
   C        9.58918        -6.42154         4.27766
   C        9.76616        -6.51703         5.72699
   C       10.13615        -5.48572         6.51960
   S       10.46120        -3.90084         5.95050
   C        9.48865        -7.87422         6.06439
   C        9.19622        -8.59715         4.90914
   C        8.91905        -9.95361         5.18730
   C        9.00602       -10.21575         6.51783
   S        9.43033        -8.83825         7.47972
   C        9.26979        -7.72788         3.76162
   C        9.16148        -8.20826         2.45872
   C        9.26496        -7.49138         1.28092
   C        9.32313        -8.04110         0.00123
   C        9.11691        -9.36225        -0.39360
   C        9.15237        -9.41394        -1.80518
   C        8.98733       -10.58869        -2.55554
   N        8.83168       -11.55952        -3.15026
   C        9.36492        -8.13137        -2.32075
   C        9.51426        -7.24059        -1.24247
   C        9.85306        -5.89546        -1.34029
   C        9.67260        -5.06819        -2.54453
   C       10.24027        -3.84510        -2.30375
   C       10.77808        -3.85119        -0.96999
   C       10.54086        -5.08828        -0.39602
   C       11.39586        -2.77311        -0.33759
   N       11.87762        -1.88920         0.22131
   C        8.91768        -5.44264        -3.69968
   C        9.25060        -5.08246        -4.95942
   C        8.50234        -5.43749        -6.11252
   C        8.98794        -5.51096        -7.38204
   C        8.07575        -5.46205        -8.56568
   O        6.86910        -5.56201        -8.55178
   C        8.96714        -5.20587        -9.70231
   C        8.82257        -4.98287       -11.03676
   S       10.39825        -4.75573       -11.76301
   C       11.21975        -4.97591       -10.26093
   C       10.33280        -5.20441        -9.25570
   C       10.36331        -5.51562        -7.84179
   C       11.47184        -5.95079        -7.15475
   C       12.75488        -5.93239        -7.74216
   N       13.80527        -5.90058        -8.20641
   C       11.43198        -6.56412        -5.88875
   N       11.42759        -7.12595        -4.88777
   C        7.57888        -4.93251       -11.83594
   H        7.42475         5.57678         1.84929
   H        6.96533         0.27945         1.68085
   H        5.88532         0.60714         3.03455
   H        7.56889         0.13906         3.34942
   H       12.00656         4.38796         5.24048
   H       13.34076         2.90968         7.15317
   H       13.22316        -0.94498         5.20739
   H        9.71721        -0.97702         1.28183
   H       11.78592         2.64718         2.36008
   H       11.12655        -1.57440         4.90349
   H       10.04810        -2.96556         2.39709
   H        9.55078        -5.13455         2.58016
   H       10.26736        -5.59560         7.58436
   H        8.66338       -10.69805         4.45519
   H        8.84414       -11.15273         7.01316
   H        9.03458        -9.28093         2.37620
   H        9.31118        -6.41418         1.32969
   H        8.92966       -10.20784         0.24322
   H        9.53118        -7.89942        -3.35556
   H       10.24159        -2.99023        -2.95552
   H       10.94551        -5.40885         0.54557
   H        8.06861        -6.09058        -3.54356
   H       10.16271        -4.52452        -5.11369
   H        7.43979        -5.60042        -5.99700
   H       12.28857        -4.91757       -10.23173
   H        6.72654        -5.12282       -11.18659
   H        7.60196        -5.68101       -12.62816
   H        7.46233        -3.95581       -12.30501
*
