# ORCA input file
# SCF done       -198.202014440032          0.000296594423
! CAM-B3LYP def2-SVP def2/J RIJCOSX Grid4 TightSCF
%maxcore 5000
%tddft
    Mode sTDDFT
    Ethresh 5.0
    maxcore 5000
end

%pal
  nprocs 6
  end
* xyz 0 1
   C       -4.92009        -2.65673         7.97085
   S       -3.38831        -3.37982         7.71271
   C       -4.11537        -4.96609         7.59262
   C       -5.48131        -4.89389         7.80440
   C       -5.93822        -3.56248         7.99464
   S       -7.61806        -3.02723         8.12397
   C       -8.12027        -3.80346         9.70451
   C       -7.32736        -3.26287        10.87703
   S       -6.54974        -6.29452         7.83040
   C       -5.78369        -7.35604         9.12354
   C       -5.63052        -6.64905        10.45389
   C       -3.35378        -6.10533         7.22815
   C       -1.99875        -6.13784         7.17002
   C       -1.20210        -7.24807         6.78262
   C       -1.66465        -8.45579         6.36111
   C       -0.85576        -9.55414         5.98474
   C       -1.43846       -10.82946         5.55069
   N       -0.57341       -11.74464         5.23109
   C        0.64649       -11.16453         5.42513
   C        0.50975        -9.78273         5.90693
   C        1.81980        -9.20626         6.07347
   S        2.19673        -7.66147         6.51313
   C        2.74231       -10.25952         5.71279
   C        1.98151       -11.44701         5.29988
   N        2.81598       -12.44719         4.89674
   C        4.01526       -11.95318         5.00116
   C        4.06893       -10.57989         5.50941
   C        5.28968        -9.85390         5.73247
   C        6.41243       -10.15341         4.98409
   C        7.60449        -9.43573         5.17797
   C        8.85082        -9.51963         4.55870
   C        9.33913       -10.46520         3.51801
   C        9.66165       -11.83242         4.15872
   N       10.81025       -11.71628         5.04471
   C        8.38303       -10.65355         2.32889
   N        9.11647       -11.23928         1.21851
   C        9.70645        -8.56899         5.22336
   C       11.00998        -8.27911         5.04742
   C       11.72170        -7.34425         5.94954
   C       10.84380        -6.61740         6.92044
   C        9.53376        -6.89836         7.06579
   C        8.92274        -7.88291         6.25572
   C        7.64349        -8.40792         6.21038
   C        6.48430        -8.13241         6.96788
   C        5.34389        -8.83009         6.72868
   C       12.71538        -8.10211         6.80581
   C       12.57703        -9.39360         7.13101
   C       13.49181       -10.11689         7.95758
   C       13.28457       -11.52473         8.29986
   N       14.21476       -12.04712         9.04723
   C       15.11122       -11.04196         9.25355
   C       14.68513        -9.80454         8.57572
   C       15.65676        -8.76590         8.82490
   S       15.61858        -7.19013         8.34197
   C       16.66435        -9.39429         9.63749
   C       16.29940       -10.79137         9.89100
   N       17.23895       -11.40564        10.66751
   C       18.12578       -10.49258        10.93098
   C       17.83477        -9.17904        10.33899
   C       18.67509        -8.04076        10.41894
   S       18.65759        -6.86154         9.13424
   C       20.01752        -6.02230         9.80883
   C       20.41072        -6.59817        11.00845
   C       19.64889        -7.73012        11.36007
   S       19.91261        -8.60509        12.86722
   C       18.22606        -8.67440        13.58734
   C       17.60550        -7.30220        13.74516
   S       21.79293        -5.97288        11.90972
   C       21.00661        -5.50703        13.50832
   C       21.82232        -4.41192        14.16453
   C       20.58609        -4.87865         9.18632
   C       20.13308        -4.34314         8.03359
   C       20.67841        -3.19087         7.36455
   C       21.77167        -2.51563         7.72299
   H       -5.00042        -1.59478         8.08879
   H       -8.01324        -4.88055         9.59230
   H       -9.17742        -3.55700         9.79354
   H       -6.26691        -3.47913        10.75939
   H       -7.67352        -3.71924        11.80263
   H       -7.45083        -2.18497        10.95278
   H       -4.82324        -7.71821         8.76305
   H       -6.47680        -8.19362         9.19831
   H       -4.97896        -5.78247        10.35453
   H       -5.18519        -7.32990        11.17659
   H       -6.59465        -6.32214        10.83567
   H       -3.93230        -6.97499         6.94845
   H       -1.46180        -5.24215         7.45724
   H       -0.13189        -7.10426         6.83389
   H       -2.73051        -8.63311         6.28857
   H       -2.49527       -11.02893         5.49203
   H        4.87063       -12.56109         4.76206
   H        6.36318       -10.91917         4.22715
   H       10.27786       -10.07198         3.11248
   H        9.81172       -12.55143         3.33979
   H        8.80810       -12.15724         4.75897
   H       11.65527       -11.57444         4.49944
   H       10.93077       -12.57565         5.56972
   H        7.91754        -9.68372         2.08680
   H        7.58950       -11.35575         2.59011
   H        9.78883       -10.57569         0.84737
   H        8.48448       -11.48996         0.46674
   H       11.61074        -8.76526         4.29189
   H       12.29268        -6.62019         5.35289
   H       11.33320        -5.88321         7.54140
   H        8.93582        -6.37306         7.79631
   H        6.51533        -7.37158         7.73334
   H        4.45361        -8.63292         7.30288
   H       13.53680        -7.51996         7.19918
   H       11.74328        -9.97160         6.74947
   H       12.44192       -12.11057         7.97512
   H       19.01223       -10.73640        11.48981
   H       18.38811        -9.14922        14.55471
   H       17.60798        -9.32713        12.97236
   H       18.22533        -6.66832        14.37574
   H       16.62466        -7.39835        14.20648
   H       17.48102        -6.82005        12.77658
   H       20.96575        -6.39771        14.13359
   H       19.99953        -5.16475        13.27365
   H       22.83618        -4.75640        14.35385
   H       21.36666        -4.13059        15.11187
   H       21.86973        -3.53412        13.52410
   H       21.43158        -4.45102         9.70606
   H       19.27805        -4.80796         7.55708
   H       20.13236        -2.87123         6.48601
   H       22.36572        -2.79027         8.57737
   H       22.11153        -1.66314         7.16117
*
