# ORCA input file
# SCF done       -175.158070722748          0.000917207531
! CAM-B3LYP def2-SVP def2/J RIJCOSX Grid4 TightSCF
%maxcore 5000
%tddft
    Mode sTDDFT
    Ethresh 5.0
    maxcore 5000
end

%pal
  nprocs 6
  end
* xyz 0 1
   C       -2.89638        14.18366        -1.52827
   S       -4.02740        12.89235        -1.41919
   C       -2.84521        11.66102        -1.79116
   C       -1.59939        12.26201        -1.96210
   C       -1.65545        13.69485        -1.81875
   N       -0.40003        14.18946        -1.99684
   C        0.43773        13.12149        -2.22416
   N        1.79863        13.35210        -2.45824
   O        2.17431        14.51537        -2.41712
   O        2.51480        12.39558        -2.69565
   C       -0.24900        11.92570        -2.19150
   C       -3.26037        10.31297        -1.88749
   C       -4.47991         9.80548        -1.24801
   N       -4.69989         8.54003        -1.44070
   C       -3.67583         8.10896        -2.22975
   C       -2.73407         9.19995        -2.51749
   C       -1.74417         8.73604        -3.46121
   S       -0.66587         9.63521        -4.32861
   C       -2.03704         7.33948        -3.64469
   C       -3.25866         6.99086        -2.91062
   N       -3.62638         5.70388        -3.16692
   C       -2.74754         5.25617        -4.02026
   C       -1.70870         6.21824        -4.38102
   C       -0.58478         5.96805        -5.23751
   C        0.60777         6.62645        -5.00196
   C        1.72307         6.37479        -5.81337
   C        3.02612         6.87081        -5.76939
   C        3.63663         7.79716        -4.77924
   C        2.95935         9.18610        -4.78105
   N        3.89208        10.15727        -4.26985
   C        3.63132         7.16775        -3.37193
   N        4.46637         7.93844        -2.46596
   C        3.73518         6.26073        -6.86764
   C        5.00966         6.39565        -7.28410
   C        5.53943         5.62340        -8.43477
   C        4.54412         4.71997        -9.09579
   C        3.26534         4.61830        -8.68527
   C        2.81216         5.35987        -7.56943
   C        1.59270         5.43839        -6.92070
   C        0.36144         4.78047        -7.13808
   C       -0.68719         5.02776        -6.31013
   C        6.12644         6.51596        -9.50043
   C        5.65061         7.73121        -9.79321
   C        6.17428         8.58161       -10.81868
   C        5.45297         9.75872       -11.30865
   N        6.06582        10.41868       -12.24858
   C        7.23769         9.75291       -12.44537
   C        7.33621         8.58127       -11.56226
   C        8.61758         7.94473       -11.75603
   S        9.16892         6.64369       -10.89730
   C        9.28034         8.71722       -12.77501
   C        8.39485         9.82828       -13.17221
   N        8.98177        10.62012       -14.11215
   C       10.15115        10.10074       -14.31460
   C       10.43888         8.89721       -13.51760
   C       11.68135         8.23574       -13.64699
   S       12.93473         8.97840       -14.64403
   C       14.06425         7.72901       -14.38139
   C       13.54011         6.75213       -13.56716
   C       12.19237         7.04396       -13.15055
   N       11.76007         6.02225       -12.38104
   C       12.78253         5.11384       -12.27410
   N       12.60557         3.93987       -11.51082
   O       11.52424         3.78448       -10.97450
   O       13.54238         3.16944       -11.43900
   C       13.89213         5.50897       -12.98627
   H       -3.21845        15.19277        -1.37439
   H       -0.08489        15.14579        -1.97195
   H        0.18326        10.95654        -2.32151
   H       -5.14314        10.40001        -0.64366
   H       -2.79903         4.23820        -4.36587
   H        0.68028         7.31313        -4.17554
   H        4.68104         7.97087        -5.05764
   H        2.01894         9.13413        -4.20998
   H        2.69870         9.46171        -5.80908
   H        4.18723         9.88408        -3.33674
   H        3.48598        11.08374        -4.21959
   H        3.94954         6.11370        -3.46230
   H        2.61567         7.17177        -2.97026
   H        5.43973         7.88193        -2.74802
   H        4.39345         7.57837        -1.52103
   H        5.70178         7.07402        -6.80391
   H        6.36783         5.00314        -8.05701
   H        4.90680         4.16034        -9.94400
   H        2.57541         3.96162        -9.19494
   H        0.26641         4.08516        -7.95901
   H       -1.63451         4.53517        -6.46921
   H        6.94109         6.09637       -10.07001
   H        4.80167         8.12705        -9.24810
   H        4.48842        10.07653       -10.95205
   H       10.83307        10.53686       -15.02416
   H       15.03371         7.77942       -14.83424
   H       10.87469         5.99042       -11.85680
   H       14.81457         4.97331       -13.07282
*
