# ORCA input file
# SCF done       -186.329068720447          0.000416217938
! CAM-B3LYP def2-SVP def2/J RIJCOSX Grid4 TightSCF
%maxcore 5000
%tddft
    Mode sTDDFT
    Ethresh 5.0
    maxcore 5000
end

%pal
  nprocs 6
  end
* xyz 0 1
   C       -2.72347        -4.05621        13.85090
   C       -3.61847        -3.26727        13.18463
   C       -3.52878        -3.08714        11.79273
   F       -4.46198        -2.29845        11.22058
   C       -2.57886        -3.68460        10.99280
   C       -1.63239        -4.48940        11.67598
   C       -1.70968        -4.67683        13.10105
   N       -0.73372        -5.46788        13.54977
   S        0.17947        -5.91873        12.31220
   N       -0.59984        -5.14177        11.14071
   C       -2.46742        -3.43653         9.56334
   C       -2.43487        -2.20233         9.00576
   C       -2.08946        -2.34106         7.60014
   C       -1.94326        -1.26979         6.71073
   N       -1.82015        -0.38971         5.98344
   C       -1.91056        -3.66378         7.31734
   C       -2.20690        -4.42988         8.50296
   C       -2.35306        -5.78852         8.61666
   C       -1.90889        -6.84512         7.67175
   C       -1.95698        -8.03174         8.34515
   C       -2.53450        -7.80866         9.65003
   C       -2.80193        -6.47525         9.79722
   C       -2.78063        -8.81260        10.59484
   N       -2.96343        -9.63429        11.37586
   C       -1.54050        -6.68628         6.30010
   C       -0.70182        -7.51569         5.64068
   C       -0.34591        -7.43304         4.24998
   C        0.71080        -8.19678         3.78630
   C        1.11369        -8.11652         2.44394
   C        2.14827        -8.75042         1.75503
   C        3.08060        -9.75478         2.33481
   C        2.61326       -11.19916         2.03349
   N        2.41919       -11.40407         0.60718
   C        4.54596        -9.58987         1.89791
   N        5.40293       -10.22797         2.88342
   C        2.08977        -8.27745         0.39205
   C        2.83600        -8.56888        -0.69258
   C        2.57680        -7.93789        -2.01071
   C        1.43473        -6.96775        -2.03040
   C        0.68386        -6.70251        -0.94542
   C        0.97518        -7.32580         0.29011
   C        0.39125        -7.23630         1.54106
   C       -0.70194        -6.48702         2.02702
   C       -1.05040        -6.58374         3.33631
   C        2.32391        -8.94451        -3.10917
   C        2.12252       -10.25023        -2.93225
   C        1.80566       -11.15901        -4.00837
   C        2.23774       -12.44247        -4.12133
   C        1.83764       -12.95441        -5.41951
   C        2.08374       -14.25894        -5.86278
   N        2.29549       -15.33126        -6.21521
   C        1.19154       -11.96482        -6.11095
   C        1.08573       -10.81952        -5.25001
   C        0.27873        -9.72561        -5.46190
   C       -0.26244        -9.24065        -6.74860
   C       -1.23248        -8.32092        -6.46289
   C       -1.31461        -8.16356        -5.03050
   C       -0.37938        -8.97254        -4.43462
   C       -2.19359        -7.30428        -4.36019
   N       -2.89660        -6.58948        -3.80002
   C        0.23350        -9.51330        -8.06016
   C        1.48713        -9.92274        -8.34826
   C        2.00109       -10.16721        -9.66796
   C        3.32982       -10.52011        -9.83438
   C        3.88083       -10.76225       -11.09850
   F        5.18608       -11.09162       -11.14803
   C        3.17248       -10.67819       -12.26640
   C        1.81946       -10.32888       -12.14552
   C        1.22252       -10.07269       -10.85697
   N       -0.06728        -9.76168       -10.97061
   S       -0.48106        -9.78749       -12.52554
   N        0.94285       -10.19184       -13.14095
   H       -2.77456        -4.20905        14.91567
   H       -4.41780        -2.76380        13.70545
   H       -2.58193        -1.26081         9.50079
   H       -1.62851        -4.05264         6.36071
   H       -1.69624        -9.00171         7.96557
   H       -3.29082        -6.02441        10.63777
   H       -2.00512        -5.87084         5.76866
   H       -0.20033        -8.29313         6.20293
   H        1.23831        -8.84729         4.46996
   H        3.05789        -9.64640         3.42456
   H        1.70289       -11.39914         2.61992
   H        3.40425       -11.86877         2.37636
   H        2.36282       -12.39534         0.40258
   H        1.54687       -10.97465         0.31450
   H        4.76601        -8.51870         1.75264
   H        4.70073       -10.11155         0.95275
   H        5.38574        -9.71373         3.75823
   H        6.36276       -10.25434         2.55918
   H        3.64361        -9.28182        -0.65084
   H        3.49215        -7.39015        -2.29336
   H        1.22217        -6.50122        -2.98042
   H       -0.14390        -6.01144        -1.00559
   H       -1.25094        -5.84613         1.35350
   H       -1.89474        -6.01971         3.69981
   H        2.25097        -8.51081        -4.09732
   H        2.25717       -10.70111        -1.95771
   H        2.81006       -12.99996        -3.40347
   H        0.72420       -12.06315        -7.07144
   H       -1.81637        -7.76157        -7.16956
   H       -0.25664        -9.11749        -3.37895
   H       -0.43985        -9.29168        -8.87721
   H        2.20240       -10.06524        -7.54801
   H        3.97548       -10.61584        -8.97463
   H        3.61861       -10.86915       -13.22693
*
