# ORCA input file
# SCF done       -249.903849839309          0.000914972475
! CAM-B3LYP def2-SVP def2/J RIJCOSX Grid4 TightSCF
%maxcore 5000
%tddft
    Mode sTDDFT
    Ethresh 5.0
    maxcore 5000
end

%pal
  nprocs 6
  end
* xyz 0 1
   C        1.35511         4.82947         2.59223
   C        0.65632         5.66992         3.41341
   F       -0.39715         6.34725         2.92594
   C        0.99571         5.85850         4.76088
   C        2.06430         5.17921         5.27588
   C        2.82148         4.30032         4.47372
   C        2.45876         4.12018         3.10601
   C        3.19872         3.24184         2.28274
   C        4.26666         2.56441         2.81052
   C        4.63455         2.76197         4.17385
   C        3.93477         3.60308         4.99158
   C        5.84455         1.98147         4.47748
   O        6.42291         1.86488         5.52772
   C        6.27137         1.41187         3.15667
   C        5.18458         1.60894         2.20676
   C        4.98494         0.93691         1.03422
   C        5.80561        -0.09899         0.54450
   N        6.41243        -0.96359         0.09422
   C        3.88491         1.16377         0.17650
   N        3.02375         1.31306        -0.56637
   C        7.54758         1.02917         2.98776
   C        8.23226         0.73734         1.74079
   C        8.26343         1.61553         0.64466
   C        7.65425         2.95357         0.64319
   O        7.09828         3.52769         1.53812
   S        7.85238         3.68409        -0.97881
   C        8.73700         2.25800        -1.63334
   O        9.08184         2.20069        -2.77568
   C        8.89944         1.26777        -0.55500
   C        9.56643         0.04765        -0.71834
   C        9.58419        -0.79836         0.39651
   C        8.92775        -0.46556         1.58124
   C        8.96168        -1.50901         2.61767
   O        8.41319        -1.49985         3.68059
   S        9.98016        -2.86206         2.03647
   C       10.30082        -2.08235         0.44364
   O       11.01805        -2.56693        -0.38055
   C       10.18602        -0.33570        -1.99175
   C       11.19135         0.43541        -2.52341
   C       11.72584         0.09538        -3.77695
   C       12.67320         0.74170        -4.57359
   C       13.45170         1.99188        -4.36581
   C       12.63323         3.19680        -4.90393
   N       12.59638         3.15972        -6.34932
   C       13.96377         2.23723        -2.93299
   N       12.96777         2.78398        -2.02246
   C       12.71285         0.01971        -5.82304
   C       13.33955         0.31013        -6.97935
   C       13.11187        -0.51841        -8.19545
   C       12.39370        -1.80028        -7.95372
   C       11.75154        -2.05832        -6.79177
   C       11.83018        -1.14009        -5.72283
   C       11.21552        -1.07180        -4.47057
   C       10.21652        -1.85998        -3.87600
   C        9.70842        -1.49153        -2.66169
   C       14.40488        -0.63283        -8.96051
   C       14.87724         0.40649        -9.63648
   C       16.18350         0.51003       -10.27001
   C       16.65761        -0.35394       -11.26235
   C       15.90704        -1.49562       -11.80886
   O       14.84322        -1.92614       -11.47219
   S       16.86161        -2.22893       -13.14785
   C       18.19420        -1.04460       -12.99463
   O       19.15079        -1.02318       -13.71402
   C       17.88898        -0.13186       -11.88561
   C       18.72101         0.94717       -11.56472
   C       18.26366         1.79683       -10.54654
   C       17.02762         1.57473        -9.92093
   C       16.70363         2.52951        -8.86053
   O       15.74256         2.54800        -8.13629
   S       18.02095         3.73668        -8.74103
   C       18.99200         2.96386       -10.04234
   O       20.05228         3.40540       -10.38938
   C       19.98863         1.12104       -12.25209
   C       20.45168         2.20313       -12.89910
   C       21.90358         2.25951       -13.27253
   O       22.67181         1.33122       -13.29171
   C       22.17497         3.68265       -13.52674
   C       23.37050         4.28942       -13.78846
   C       23.40888         5.68931       -13.96781
   C       22.20143         6.44032       -13.85656
   C       22.24762         7.83813       -14.02769
   C       23.44370         8.44164       -14.29977
   C       24.64077         7.72045       -14.41539
   C       24.61497         6.36381       -14.24995
   F       23.48993         9.77464       -14.46581
   C       20.97852         5.78689       -13.58390
   C       20.96149         4.42482       -13.43193
   C       19.86065         3.50470       -13.17964
   C       18.53292         3.79590       -13.31634
   C       17.48138         2.86051       -13.24441
   N       16.56944         2.16313       -13.22125
   C       18.03327         5.08635       -13.60307
   N       17.55948         6.10917       -13.81550
   H        1.06423         4.70713         1.56062
   H        0.40737         6.53533         5.35994
   H        2.34503         5.30899         6.31013
   H        2.91196         3.13773         1.24836
   H        4.23087         3.73762         6.02113
   H        8.14070         0.94300         3.89321
   H       11.57003         1.30796        -2.01158
   H       14.34460         1.92206        -4.99741
   H       13.09778         4.11837        -4.51631
   H       11.61116         3.13046        -4.52494
   H       13.48541         3.44447        -6.74650
   H       11.86821         3.75825        -6.71631
   H       14.84606         2.89411        -3.01474
   H       14.29720         1.28259        -2.51625
   H       12.65932         3.69880        -2.33231
   H       13.37519         2.89104        -1.09970
   H       13.98930         1.16303        -7.09310
   H       12.43630         0.09508        -8.81931
   H       12.36028        -2.49087        -8.78203
   H       11.18457        -2.96876        -6.66604
   H        9.83921        -2.73211        -4.38783
   H        8.91162        -2.05947        -2.20587
   H       14.96188        -1.54978        -8.84819
   H       14.29868         1.32215        -9.67341
   H       20.66316         0.26969       -12.22370
   H       24.27647         3.70618       -13.85748
   H       21.34556         8.42450       -13.94842
   H       25.55413         8.25167       -14.63146
   H       25.52387         5.78744       -14.33371
   H       20.08467         6.38285       -13.49117
*
