# ORCA input file
# SCF done       -200.559249304144          0.000580557598
! CAM-B3LYP def2-SVP def2/J RIJCOSX Grid4 TightSCF
%maxcore 5000
%tddft
    Mode sTDDFT
    Ethresh 5.0
    maxcore 5000
end

%pal
  nprocs 6
  end
* xyz 0 1
   C        7.55666        11.06427        -6.94653
   C        6.61157        11.53004        -7.81818
   F        6.99561        12.23772        -8.89381
   C        5.24093        11.29767        -7.63597
   C        4.83039        10.57917        -6.54801
   C        5.76212        10.07472        -5.61727
   C        7.15187        10.32375        -5.81900
   C        8.10449         9.83667        -4.89415
   C        7.67903         9.12321        -3.80581
   C        6.28915         8.86361        -3.61782
   C        5.34868         9.32690        -4.49293
   C        6.09815         8.05390        -2.40059
   O        5.06367         7.68366        -1.90054
   C        7.48015         7.72086        -1.94124
   C        8.41367         8.54238        -2.68712
   C        9.67530         8.88780        -2.28213
   C       10.22125         8.51860        -1.03358
   N       10.67381         8.30897         0.00007
   C       10.52388         9.74217        -3.01721
   N       11.24806        10.41839        -3.59571
   C        7.69098         6.71384        -1.05877
   C        8.91911         6.04238        -0.80972
   C        9.99199         5.77664        -1.78061
   N       10.99090         5.10001        -1.29649
   C       10.69073         4.88305         0.01365
   C        9.36311         5.42094         0.33338
   C        9.07334         5.23355         1.73633
   S        7.73822         5.76745         2.53826
   C       10.23474         4.56642         2.24818
   C       11.21179         4.36412         1.17459
   N       12.34132         3.77016         1.65895
   C       12.16530         3.66072         2.93865
   C       10.87123         4.17190         3.41893
   C       10.39162         4.19253         4.74019
   S        8.68357         4.24346         5.01842
   C        8.86833         4.21853         6.73658
   C       10.23832         4.21527         7.09589
   C       11.10609         4.18384         5.96696
   C       12.49127         4.19429         6.16761
   C       12.99050         4.17457         7.45652
   C       14.43819         4.10445         7.70058
   O       14.93721         3.95219         8.78551
   C       12.12019         4.20272         8.56572
   C       10.76450         4.24012         8.39619
   C        7.79719         4.13035         7.62863
   C        6.46710         4.07166         7.31545
   C        5.48883         3.76722         8.28121
   C        4.06135         3.56334         7.98311
   N        3.36720         3.08807         8.96803
   C        4.25094         2.92701         9.99834
   C        5.58735         3.42307         9.62265
   C        6.49148         3.22363        10.71760
   S        7.99092         3.86407        10.98531
   C        5.75392         2.40853        11.64675
   C        4.34287         2.32533        11.22527
   N        3.62824         1.57111        12.10504
   C        4.48065         1.15407        12.98964
   C        5.86834         1.58602        12.74576
   C        6.96192         1.17862        13.54927
   C        8.29669         1.10863        13.29407
   C        9.21853         1.00250        14.47149
   O        8.90046         0.71918        15.60187
   C       10.54814         1.35985        13.95530
   C       11.71633         1.53183        14.64051
   C       12.88451         1.88831        13.93228
   C       12.82139         2.06946        12.51794
   C       13.99686         2.41861        11.82316
   C       15.16664         2.57034        12.51731
   C       15.24524         2.40015        13.90714
   C       14.11481         2.06485        14.59780
   F       16.29246         2.88739        11.86313
   C       11.59493         1.88438        11.83510
   C       10.47690         1.52809        12.54197
   C        9.11317         1.23662        12.10807
   C        8.73946         0.96670        10.81510
   C        7.47819         0.45585        10.45535
   N        6.47225         0.02221        10.11137
   C        9.56578         1.13917         9.68628
   N       10.15660         1.30757         8.71595
   H        8.60276        11.26530        -7.11692
   H        4.54181        11.69028        -8.35715
   H        3.78046        10.38716        -6.38627
   H        9.14991        10.03247        -5.07390
   H        4.30088         9.12540        -4.32795
   H        6.81749         6.34768        -0.52821
   H        9.96105         6.03757        -2.82440
   H       12.89930         3.15562         3.54018
   H       13.17192         4.22483         5.33183
   H       15.05809         4.18501         6.78724
   H       12.55821         4.21749         9.55222
   H       10.10907         4.28982         9.25014
   H        8.06940         4.05168         8.67157
   H        6.14074         4.19052         6.29015
   H        3.59871         3.78313         7.03619
   H        4.16989         0.52953        13.80867
   H        6.69728         0.90851        14.57002
   H       11.74952         1.39371        15.71083
   H       13.99038         2.56246        10.75364
   H       16.19523         2.53626        14.39924
   H       14.14936         1.92713        15.66801
   H       11.56861         2.03381        10.76697
*
