# ORCA input file
# SCF done       -201.578925816308          0.011215031999
! CAM-B3LYP def2-SVP def2/J RIJCOSX Grid4 TightSCF
%maxcore 5000
%tddft
    Mode sTDDFT
    Ethresh 5.0
    maxcore 5000
end

%pal
  nprocs 6
  end
* xyz 0 2
   C        4.75724         1.26589         4.93817
   C        4.61944         2.62056         4.83043
   C        5.69885         3.49675         4.58509
   N        6.54642         4.24398         4.38754
   C        3.41100         3.30952         5.07271
   N        2.48929         3.92939         5.36085
   C        6.01705         0.53028         4.96064
   C        5.79302        -0.75071         5.55131
   C        6.80956        -1.64812         5.72724
   C        8.11212        -1.30407         5.30541
   C        8.33871        -0.03247         4.69964
   C        7.27028         0.87886         4.53464
   C        9.64246         0.29337         4.27437
   C       10.67444        -0.59005         4.44062
   C       10.45105        -1.84038         5.03788
   C        9.19762        -2.18987         5.46093
   C        4.36842        -0.89738         5.87401
   O        3.80268        -1.80575         6.43444
   C        3.71330         0.31818         5.28111
   C        2.38455         0.28097         5.01543
   C        1.65731         1.12640         4.13284
   N        2.25470         1.94137         3.27961
   C        1.27078         2.51654         2.55786
   C       -0.04429         2.00889         2.95171
   C       -1.10660         2.65811         2.16347
   O       -2.29618         2.43276         2.17676
   C       -0.35204         3.62304         1.34258
   C        1.09989         3.48733         1.59915
   N        1.80204         4.37433         0.85650
   C        0.90133         5.05033         0.18686
   C       -0.46659         4.63664         0.44945
   C        0.18204         1.12735         3.98681
   C       -0.73024         0.41659         4.80238
   C       -2.05954         0.33017         4.50852
   C       -3.03149        -0.30552         5.30620
   S       -4.49423        -0.88682         4.55962
   C       -5.12206        -1.54070         6.09811
   S       -6.54191        -2.39858         6.20251
   C       -4.21915        -1.22594         7.09316
   C       -3.05716        -0.56469         6.69285
   C       -2.13281        -0.28268         7.75418
   C       -2.46633        -0.78170         8.96094
   S       -4.19950        -1.39260         8.87282
   O       -4.99037        -0.33393         9.41995
   O       -4.45915        -2.71638         9.34089
   C       -1.77153        -0.60797        10.19358
   N       -1.24357         0.55283        10.52878
   C       -0.78841         0.40053        11.79493
   C       -1.04890        -0.95920        12.29328
   C       -0.51627        -1.12617        13.66110
   O       -0.54057        -2.10503        14.36706
   C        0.06834         0.20364        13.93323
   C       -0.12218         1.10039        12.76635
   N        0.44283         2.31157        12.99890
   C        0.96315         2.22299        14.19537
   C        0.77681         0.92882        14.83229
   C       -1.63681        -1.63724        11.25908
   C       -1.98001        -3.01081        11.12198
   C       -2.08944        -3.58266         9.89985
   C       -2.57477        -4.89134         9.66387
   C       -2.96274        -5.31384         8.42692
   C       -3.50812        -6.61521         8.07349
   C       -3.83467        -7.63123         8.93189
   C       -4.37305        -8.86833         8.51661
   N       -4.80371        -9.89612         8.24237
   C       -3.69447        -7.59928        10.33725
   N       -3.60802        -7.66014        11.48241
   C       -3.68469        -6.64504         6.62499
   C       -3.35999        -5.36082         6.10341
   C       -2.91406        -4.48757         7.19414
   O       -2.56215        -3.32308         7.07336
   C       -3.43571        -5.08211         4.76954
   C       -3.81238        -6.10446         3.87158
   C       -4.11601        -7.39830         4.38180
   C       -4.05955        -7.64868         5.77191
   C       -4.45864        -8.42146         3.47486
   C       -4.49244        -8.18157         2.12741
   C       -4.19711        -6.90625         1.62643
   C       -3.86945        -5.88807         2.48016
   H        6.61945        -2.61041         6.17977
   H        7.46589         1.82963         4.06342
   H        9.81050         1.25748         3.81737
   H       11.66948        -0.33027         4.11272
   H       11.27701        -2.52479         5.15997
   H        9.01879        -3.15075         5.92107
   H        1.84533        -0.55155         5.45462
   H        1.19952         5.83121        -0.49065
   H       -1.34333         5.06660         0.00827
   H       -0.33280        -0.09717         5.66569
   H       -2.41195         0.74528         3.57001
   H       -1.20928         0.24986         7.59302
   H        1.47411         3.06521        14.62992
   H        1.13732         0.65640        15.80428
   H       -2.14584        -3.57634        12.02689
   H       -1.84612        -2.99366         9.03006
   H       -2.68110        -5.54245        10.51831
   H       -3.19261        -4.09648         4.40141
   H       -4.29981        -8.63887         6.12261
   H       -4.68767        -9.40171         3.86551
   H       -4.74576        -8.97447         1.43995
   H       -4.22755        -6.73591         0.56071
   H       -3.64136        -4.90415         2.10063
*
