# ORCA input file
# SCF done       -206.070050910808          0.000441141179
! CAM-B3LYP def2-SVP def2/J RIJCOSX Grid4 TightSCF
%maxcore 5000
%tddft
    Mode sTDDFT
    Ethresh 5.0
    maxcore 5000
end

%pal
  nprocs 6
  end
* xyz 0 1
   C       -1.97479         7.08039        12.60367
   C       -3.19491         6.84741        12.03203
   C       -4.16065         7.85182        11.81142
   N       -4.97091         8.63228        11.58271
   C       -3.69613         5.57479        11.68403
   N       -4.21950         4.57900        11.45693
   C       -1.56147         8.32466        13.24281
   C       -0.43207         8.05921        14.07192
   C        0.14294         9.03277        14.83685
   C       -0.38739        10.34165        14.80049
   C       -1.50353        10.61899        13.95923
   C       -2.08221         9.59011        13.18194
   C       -2.01941        11.93079        13.92669
   C       -1.46456        12.92042        14.69114
   C       -0.36713        12.64563        15.52104
   C        0.16013        11.38409        15.57411
   C       -0.04255         6.64546        13.92854
   O        0.84222         6.05256        14.50254
   C       -0.93788         6.09617        12.86905
   C       -0.62294         4.92773        12.26962
   C       -1.19450         4.30756        11.09084
   C       -1.50680         2.94981        11.21661
   C       -2.15203         2.26425        10.20504
   C       -2.54787         0.83099        10.37752
   C       -2.44121         2.94597         9.03312
   C       -2.07847         4.27810         8.84901
   C       -1.43499         4.97506         9.88265
   C       -0.99252         6.39000         9.65441
   C       -2.37698         4.92286         7.57542
   C       -3.50910         4.70354         6.89284
   C       -3.86756         5.23815         5.59631
   C       -5.14854         5.05266         5.13552
   C       -5.52934         5.50207         3.85223
   C       -6.72539         5.41793         3.15794
   C       -8.04344         4.87586         3.60610
   C       -7.95146         3.43457         4.13629
   N       -9.18944         2.73039         3.84300
   C       -8.67430         5.81912         4.64681
   N       -9.00582         7.08372         4.01104
   C       -6.49667         6.01328         1.86236
   C       -7.30845         6.15674         0.79943
   C       -6.83174         6.76963        -0.47203
   C       -5.41985         7.26366        -0.43275
   C       -4.62199         7.11645         0.64099
   C       -5.10445         6.47981         1.80941
   C       -4.52751         6.16428         3.02186
   C       -3.22083         6.35770         3.52841
   C       -2.90777         5.91186         4.76975
   C       -7.76994         7.88210        -0.87637
   C       -8.56080         7.82128        -1.94063
   C       -9.45004         8.88103        -2.42603
   C       -9.43496         9.10839        -3.80310
   C      -10.20315        10.09983        -4.39151
   C      -10.14553        10.34978        -5.86727
   C      -11.00863        10.87140        -3.57324
   C      -11.07042        10.65533        -2.19329
   C      -10.29107         9.63734        -1.60557
   C      -10.44708         9.32898        -0.14602
   C      -11.90988        11.50395        -1.37879
   C      -12.99157        12.18605        -1.82526
   C      -13.74219        13.03300        -0.97495
   C      -14.84412        13.74477        -1.35747
   C      -15.64353        14.62298        -0.52335
   C      -15.41478        14.95234         0.78884
   C      -16.22852        15.82648         1.53891
   N      -16.84325        16.52960         2.20730
   C      -14.34544        14.48876         1.58193
   N      -13.50760        14.16199         2.29735
   C      -16.74892        15.12352        -1.33427
   C      -16.62625        14.59152        -2.64892
   C      -15.43381        13.72855        -2.71985
   O      -15.03237        13.13826        -3.70266
   C      -17.52359        14.88402        -3.63451
   C      -18.61054        15.73901        -3.34549
   C      -18.74193        16.27604        -2.03276
   C      -17.79503        15.95544        -1.03288
   C      -19.83030        17.12782        -1.75421
   C      -20.74572        17.43453        -2.72379
   C      -20.61556        16.90422        -4.01597
   C      -19.57045        16.07474        -4.32012
   H        0.99248         8.80635        15.46400
   H       -2.92221         9.83036        12.54920
   H       -2.86636        12.13653        13.28865
   H       -1.86889        13.92114        14.66151
   H        0.05812        13.43865        16.11785
   H        1.00508        11.16634        16.21099
   H        0.16809         4.36579        12.75936
   H       -1.28367         2.44959        12.14792
   H       -1.89000         0.32692        11.08130
   H       -2.52315         0.30416         9.42640
   H       -3.56447         0.77988        10.76735
   H       -2.93046         2.42352         8.22446
   H       -0.38157         6.44894         8.75378
   H       -0.39869         6.76694        10.48253
   H       -1.85257         7.04586         9.51043
   H       -1.63529         5.61053         7.19550
   H       -4.26462         4.07289         7.34609
   H       -5.87034         4.54833         5.76087
   H       -8.71730         4.84978         2.74576
   H       -7.70780         3.44649         5.21108
   H       -7.14624         2.90965         3.61441
   H       -9.96797         3.17744         4.31608
   H       -9.13856         1.77199         4.17079
   H       -7.98237         5.92738         5.49886
   H       -9.60817         5.38673         5.01894
   H       -8.15833         7.51871         3.65891
   H       -9.42374         7.71807         4.68317
   H       -8.33835         5.82753         0.81643
   H       -6.90022         5.98869        -1.24649
   H       -5.06874         7.74981        -1.33076
   H       -3.60376         7.47865         0.62356
   H       -2.48206         6.85165         2.91338
   H       -1.90555         6.04381         5.14729
   H       -7.73834         8.75595        -0.24299
   H       -8.51797         6.94535        -2.57871
   H       -8.79160         8.49881        -4.42249
   H       -9.85526         9.44913        -6.40282
   H       -9.41029        11.12510        -6.08481
   H      -11.10978        10.68830        -6.23856
   H      -11.58804        11.67023        -4.00935
   H       -9.91170        10.05601         0.46540
   H      -10.05733         8.34221         0.08626
   H      -11.49689         9.35707         0.13845
   H      -11.64030        11.60339        -0.33490
   H      -13.32670        12.08831        -2.84601
   H      -13.40331        13.10743         0.05070
   H      -17.40634        14.46584        -4.62340
   H      -17.92562        16.37789        -0.04943
   H      -19.92630        17.53376        -0.75778
   H      -21.57597        18.08774        -2.50027
   H      -21.34743        17.15619        -4.76897
   H      -19.46474        15.66323        -5.31343
*
