# ORCA input file
# SCF done       -163.293964341191          0.000479989262
! CAM-B3LYP def2-SVP def2/J RIJCOSX Grid4 TightSCF
%maxcore 5000
%tddft
    Mode sTDDFT
    Ethresh 5.0
    maxcore 5000
end

%pal
  nprocs 6
  end
* xyz 0 1
   C       -6.08252         4.53334         5.23129
   C       -5.30799         3.43385         4.92827
   C       -3.96446         3.28285         5.31977
   N       -2.86696         3.09573         5.60592
   C       -5.72431         2.30405         4.19910
   N       -5.96971         1.34147         3.61921
   C       -5.62608         5.69058         6.00195
   C       -6.69992         6.60512         6.12101
   C       -6.58879         7.79697         6.79159
   C       -5.35405         8.10537         7.37467
   C       -4.28724         7.18741         7.24979
   C       -4.40112         5.97908         6.57088
   S       -2.85094         7.76516         8.04174
   C       -3.69549         9.21277         8.52270
   C       -4.98452         9.26338         8.11345
  Br       -2.79448        10.52187         9.52107
   C       -7.88329         6.05739         5.42068
   O       -8.97333         6.59216         5.33392
   C       -7.45368         4.76213         4.86954
   C       -8.25744         3.92558         4.11311
   C       -9.57607         4.17946         3.76891
   C      -10.32757         3.31525         2.98814
   C      -11.66271         3.49170         2.57288
   C      -12.14396         2.47756         1.79043
   C      -11.20831         1.45423         1.55758
   S       -9.69612         1.81143         2.36066
   C      -11.36205         0.29563         0.80801
   C      -12.49293        -0.14295         0.09076
   C      -12.30297        -1.32939        -0.55552
   C      -11.01926        -1.89839        -0.37425
   S      -10.05689        -0.84647         0.64603
   C      -10.59455        -3.06172        -0.97426
   C       -9.38775        -3.76614        -0.86720
   S       -9.09129        -4.98806        -2.10410
   C       -7.54496        -5.43406        -1.42130
   C       -7.32235        -4.68897        -0.27076
   C       -8.32430        -3.76701         0.03303
   C       -8.00910        -3.04828         1.30405
   C       -6.88671        -3.90124         1.92351
   C       -6.23569        -4.66383         0.75490
   C       -6.77618        -6.41256        -2.08124
   C       -5.52809        -6.83167        -1.72149
   C       -4.83510        -7.81387        -2.46487
   O       -5.43315        -8.28105        -3.58525
   C       -4.62543        -9.19960        -4.16818
   C       -3.47710        -9.33943        -3.40686
   C       -3.59233        -8.45883        -2.31421
   C       -2.53557        -8.35495        -1.29752
   O       -1.51783        -9.00447        -1.40491
   C       -2.75874        -7.42875        -0.12829
   C       -5.03665        -9.80346        -5.37270
   C       -6.20590        -9.47819        -6.00783
   C       -6.69879       -10.00355        -7.23213
   C       -7.87946        -9.46678        -7.63658
   C       -8.39569        -8.48509        -6.75337
   S       -7.32206        -8.27959        -5.38342
   C       -9.54802        -7.74654        -6.87309
   C      -10.50776        -7.78537        -7.92359
   C      -11.53886        -6.92666        -7.76682
   C      -11.47567        -6.13620        -6.57011
   S      -10.01592        -6.56607        -5.66536
   C      -12.34678        -5.20817        -6.15221
   H       -7.42670         8.47259         6.86463
   H       -3.55591         5.31482         6.50466
   H       -5.64935        10.08176         8.32194
   H       -7.82832         2.99956         3.74978
   H      -10.04535         5.08987         4.11201
   H      -12.22821         4.36013         2.86016
   H      -13.13881         2.44782         1.38335
   H      -13.40734         0.42147         0.06536
   H      -13.05034        -1.81848        -1.15526
   H      -11.29862        -3.48743        -1.68055
   H       -8.86944        -2.96405         1.96572
   H       -7.65060        -2.03960         1.08666
   H       -7.32067        -4.61794         2.62236
   H       -6.16915        -3.29080         2.46739
   H       -5.91520        -5.66176         1.05425
   H       -5.36715        -4.12486         0.36613
   H       -7.23086        -6.85155        -2.95898
   H       -5.04068        -6.41052        -0.86219
   H       -2.64682        -9.98720        -3.59899
   H       -2.84098        -6.40247        -0.47918
   H       -1.91167        -7.50596         0.54894
   H       -3.66940        -7.70228         0.39920
   H       -4.38212       -10.54173        -5.80821
   H       -6.15395       -10.75854        -7.77108
   H       -8.39127        -9.74395        -8.54076
   H      -10.39318        -8.45107        -8.76065
   H      -12.35624        -6.81242        -8.45657
   H      -13.22230        -4.97465        -6.73186
   H      -12.19888        -4.67051        -5.23374
*
