# ORCA input file
# SCF done       -203.236610491483          0.000599078937
! CAM-B3LYP def2-SVP def2/J RIJCOSX Grid4 TightSCF
%maxcore 5000
%tddft
    Mode sTDDFT
    Ethresh 5.0
    maxcore 5000
end

%pal
  nprocs 6
  end
* xyz 0 1
   C       -7.86451         1.00244         5.18158
   C       -6.91833         0.01326         5.08160
   C       -6.33656        -0.64167         6.18664
   N       -5.83202        -1.22218         7.03942
   C       -6.38450        -0.49592         3.88029
   N       -5.89154        -0.95994         2.95193
   C       -8.37949         1.54698         6.43413
   C       -9.33375         2.54677         6.13476
   C      -10.00493         3.24971         7.10411
   C       -9.70562         2.96439         8.43989
   C       -8.73810         1.97511         8.73217
   C       -8.06987         1.25473         7.74938
   S       -8.50965         1.79276        10.44614
   C       -9.70163         3.03020        10.74041
   C      -10.24432         3.55445         9.61619
  Br      -10.11981         3.51896        12.50337
   C       -9.43335         2.71084         4.67267
   O      -10.14373         3.51346         4.09936
   C       -8.50817         1.70715         4.09285
   C       -8.30193         1.51671         2.74994
   C       -8.86944         2.34584         1.76751
   C       -8.59852         2.28142         0.43133
   C       -9.04405         3.32108        -0.41360
   O       -9.73246         4.34583         0.14190
   C       -9.88154         5.32690        -0.77361
   C       -9.32035         4.91149        -1.98285
   C       -8.78089         3.63004        -1.75238
   O       -8.10244         2.82911        -2.60622
   O       -9.28382         5.65896        -3.11413
   C      -10.39834         6.54846        -0.28689
   C      -10.40950         7.74930        -0.91747
   C      -10.72859         8.92040        -0.18854
   C      -10.70046        10.18553        -0.66343
   N      -10.96993        11.23663         0.16340
   C      -11.13898        12.51225        -0.20278
   S      -10.74036        13.06422        -1.80099
   C      -11.27863        14.66243        -1.36731
   N      -11.19223        15.65740        -2.34318
   O      -11.57472        16.77617        -2.04933
   O      -10.73625        15.32454        -3.42574
   C      -11.75296        14.75426        -0.08980
   C      -11.69697        13.52989         0.60976
   C      -12.21589        13.27971         1.90864
   C      -12.99544        14.15650         2.60801
   C      -13.59566        13.93577         3.85815
   C      -13.54190        12.85163         4.70596
   C      -14.17861        12.81491         5.97036
   C      -13.91764        11.69905         6.70614
   C      -13.06353        10.77901         6.05982
   S      -12.64569        11.35702         4.47044
   C      -12.49716         9.64490         6.62275
   C      -12.47260         9.32056         7.99264
   C      -11.58936         8.32758         8.29836
   C      -10.86599         7.82358         7.19243
   S      -11.47554         8.53738         5.72584
   C       -9.84513         6.89070         7.33897
   C       -8.91479         6.32693         6.48386
   C       -8.49381         6.52657         5.17244
   C       -8.62575         7.56071         4.20995
   C       -8.96688         8.89191         4.44076
   C       -9.44801         9.73505         3.43846
   N       -9.97011        10.40107         2.65353
   C       -8.82042         9.48111         5.70962
   N       -8.63734         9.98704         6.72489
   C       -8.13019         7.05654         2.92655
   C       -7.60059         5.75896         3.12758
   C       -7.77268         5.39519         4.54754
   O       -7.39623         4.37502         5.09203
   C       -6.98011         5.04824         2.13392
   C       -6.87564         5.64887         0.87362
   C       -7.37827         6.95455         0.68816
   C       -8.00397         7.67598         1.70057
   S       -7.11976         7.51654        -0.93513
   C       -6.38671         5.98977        -1.34383
   C       -6.30980         5.11339        -0.31634
  Br       -5.86415         5.65748        -3.11515
   H      -10.73305         4.00090         6.83995
   H       -7.34195         0.51049         8.02587
   H      -10.99830         4.32063         9.61400
   H       -7.63302         0.73324         2.41832
   H       -9.51188         3.14380         2.10877
   H       -7.99245         1.50244        -0.00670
   H       -7.75675         3.33105        -3.35634
   H       -8.97704         5.13373        -3.86391
   H      -10.70604         6.49300         0.74958
   H      -10.11758         7.82955        -1.95333
   H      -10.97296         8.78131         0.85748
   H      -10.50006        10.41525        -1.70014
   H      -10.95774        11.01361         1.16706
   H      -12.11719        15.68148         0.31221
   H      -12.00726        12.31200         2.33886
   H      -13.20598        15.11967         2.16528
   H      -14.19639        14.75561         4.23408
   H      -14.79767        13.62799         6.30648
   H      -14.31084        11.51815         7.68956
   H      -13.04619         9.86249         8.72182
   H      -11.39024         7.98646         9.29858
   H       -9.78673         6.51142         8.35441
   H       -8.40172         5.46952         6.91608
   H       -6.57578         4.06584         2.31916
   H       -8.36388         8.67384         1.50975
   H       -5.88782         4.12756        -0.39031
*
