# ORCA input file
# SCF done       -205.164707396801          0.000852506403
! CAM-B3LYP def2-SVP def2/J RIJCOSX Grid4 TightSCF
%maxcore 5000
%tddft
    Mode sTDDFT
    Ethresh 5.0
    maxcore 5000
end

%pal
  nprocs 6
  end
* xyz 0 1
   C       -3.52563         4.13384         2.01053
   C       -2.38215         3.46300         1.65072
   C       -1.69348         2.56411         2.49034
   N       -1.08470         1.82187         3.12138
   C       -1.72326         3.55991         0.40828
   N       -1.12080         3.57296        -0.56991
   C       -4.19179         4.01696         3.30543
   C       -5.33557         4.85090         3.30520
   C       -6.17592         4.95772         4.38583
   C       -5.87384         4.20438         5.52528
   C       -4.72858         3.37471         5.51735
   C       -3.87839         3.26692         4.42346
   S       -4.53941         2.53155         7.02580
   C       -5.98287         3.29515         7.63670
   C       -6.57706         4.13804         6.75964
  Br       -6.56998         2.90766         9.37607
   C       -5.44098         5.53696         1.99968
   O       -6.30845         6.32370         1.67608
   C       -4.28745         5.06307         1.20543
   C       -4.00972         5.44931        -0.08309
   C       -4.77999         6.34276        -0.84394
   C       -4.44440         6.65748        -2.13102
   C       -5.18353         7.52411        -2.95238
   O       -6.31287         8.14408        -2.51721
   C       -6.81086         8.89102        -3.53061
   C       -5.98630         8.75586        -4.64930
   C       -4.94613         7.88743        -4.28395
   O       -3.91927         7.47171        -5.04326
   O       -6.09744         9.32015        -5.88122
   C       -7.99306         9.65053        -3.37000
   C       -8.69926         9.73204        -2.20910
   C       -9.88182        10.49248        -2.08147
   C      -10.55079        10.63728        -0.90391
   C      -11.73655        11.37460        -0.68648
   S      -12.09521        11.89386         0.92983
   C      -13.52892        12.74877         0.46663
   C      -13.72701        12.64031        -0.92096
   C      -12.73334        11.83341        -1.56616
   C      -12.86625        11.53773        -2.93698
   C      -13.87914        12.10975        -3.64991
   F      -14.01427        11.83036        -4.95788
   C      -14.78260        13.00584        -3.03955
   F      -15.72265        13.60080        -3.79276
   C      -14.72241        13.26284        -1.70087
   C      -14.26763        13.40143         1.48582
   C      -15.56653        13.78612         1.42677
   C      -16.25938        14.47237         2.46194
   S      -17.96557        14.80807         2.23253
   C      -15.80409        14.96551         3.65920
   C      -16.79201        15.62616         4.42487
   C      -16.65379        16.25703         5.69260
   C      -15.28211        16.23927         6.31249
   C      -14.39197        17.33501         5.72193
   C      -17.74537        16.86945         6.27153
   C      -17.69201        17.60412         7.58408
   C      -17.58401        19.11536         7.36725
   C      -18.03518        15.61662         3.76173
   C      -19.13251        16.22192         4.34702
   S      -20.74341        16.32700         3.71889
   C      -18.99872        16.85328         5.59891
   C      -20.22783        17.41582         6.01566
   C      -21.25778        17.22774         5.13073
   C      -22.61590        17.65094         5.20949
   C      -23.14417        18.39975         6.20039
   C      -24.50477        18.80953         6.25273
   S      -25.70817        18.37257         5.05594
   C      -26.97687        19.22604         5.83331
   C      -26.51939        19.83559         6.97485
   C      -25.12627        19.59185         7.19887
   O      -24.70624        20.20720         8.32711
   C      -25.80888        20.83543         8.81943
   N      -25.66018        21.57623        10.01793
   O      -26.65823        22.13091        10.43750
   O      -24.56448        21.60813        10.53392
   C      -26.93250        20.65652         8.06096
   H       -7.04049         5.60212         4.35347
   H       -3.01868         2.61995         4.46922
   H       -7.47402         4.69075         6.97188
   H       -3.13473         5.03618        -0.56820
   H       -5.66134         6.78152        -0.40167
   H       -3.56551         6.22684        -2.59153
   H       -4.00066         7.87202        -5.91944
   H       -6.88398         9.87443        -5.91984
   H       -8.33586        10.19528        -4.24090
   H       -8.34015         9.18990        -1.34607
   H      -10.22561        11.00883        -2.96554
   H      -10.10894        10.19967        -0.01685
   H      -12.20379        10.84640        -3.42802
   H      -15.42232        13.95766        -1.27090
   H      -13.72624        13.54982         2.41109
   H      -16.16274        13.54478         0.56029
   H      -14.78094        14.85771         3.96733
   H      -14.82302        15.26519         6.13376
   H      -15.33956        16.37296         7.39161
   H      -14.31449        17.22861         4.64233
   H      -13.39363        17.28129         6.15017
   H      -14.80547        18.31720         5.93578
   H      -16.84670        17.27281         8.18491
   H      -18.59744        17.38516         8.15311
   H      -16.66261        19.36020         6.84486
   H      -17.58628        19.63377         8.32321
   H      -18.41700        19.48070         6.77127
   H      -20.36241        17.94233         6.94190
   H      -23.25691        17.34016         4.39397
   H      -22.53838        18.74091         7.02780
   H      -27.95999        19.22680         5.41065
   H      -27.90197        21.06080         8.26588
*
