# ORCA input file
# SCF done       -175.824882089515          0.000793439801
! CAM-B3LYP def2-SVP def2/J RIJCOSX Grid4 TightSCF
%maxcore 5000
%tddft
    Mode sTDDFT
    Ethresh 5.0
    maxcore 5000
end

%pal
  nprocs 6
  end
* xyz 0 1
   C        0.54166         2.60293        -3.26199
   S        0.18799         2.71930        -1.59418
   C       -0.35282         4.36875        -1.77402
   C       -0.22520         4.78399        -3.08478
   C        0.26878         3.75959        -3.93738
   C        0.40114         3.93034        -5.39364
   O        0.89122         3.08127        -6.11267
   C       -0.16187         5.19747        -5.90287
   C       -0.30320         5.36279        -7.27847
   C       -0.84209         6.52316        -7.79879
   C       -1.24212         7.55928        -6.96013
   C       -1.78554         8.83972        -7.51995
   C       -0.65453         9.85398        -7.70852
   C       -1.07483         7.40780        -5.59002
   C       -0.55088         6.24132        -5.05029
   C       -0.39541         6.15951        -3.58138
   O       -0.32921         7.14239        -2.87155
   C       -1.01971         5.09831        -0.74156
   N       -0.74694         5.05029         0.60375
   C        0.36627         4.38070         1.23085
   C        1.68713         5.08281         0.93430
   C       -1.60931         5.89188         1.33257
   O       -1.53090         6.06832         2.53522
   C       -2.50379         6.42559         0.33819
   C       -2.10719         5.93460        -0.93037
   C       -3.00900         6.49055        -1.91525
   O       -3.11093         6.33059        -3.11373
   N       -3.87325         7.32352        -1.16973
   C       -4.88370         8.10870        -1.83352
   C       -4.37034         9.50740        -2.16875
   C       -3.58118         7.28874         0.17154
   C       -4.17324         7.93465         1.28609
   C       -5.00559         8.99816         1.40151
   C       -5.34948         9.53487         2.67435
   S       -6.74516        10.58133         2.83704
   C       -6.53939        10.71068         4.54813
   C       -5.45968        10.01631         4.95938
   C       -4.75379         9.35238         3.91879
   C       -3.56583         8.68137         4.35053
   C       -3.33967         8.68101         5.68225
   S       -4.62662         9.64777         6.51052
   O       -4.07058        10.83735         7.09174
   O       -5.46194         8.82617         7.34052
   C       -2.29334         8.06499         6.42050
   C       -1.41884         7.20231         5.85953
   C       -0.33363         6.50724         6.50676
   C        0.52860         5.74419         5.71151
   C        1.58260         5.05210         6.29327
   C        1.72764         5.15760         7.67909
   N        0.92216         5.87259         8.44369
   C       -0.07382         6.52963         7.88357
   C        2.51970         4.26184         5.47830
   C        2.05952         3.39579         4.47764
   O        0.70306         3.21759         4.25701
   C        0.03479         2.46961         5.25184
   C        2.97238         2.72346         3.65620
   C        4.34069         2.89191         3.87305
   C        4.80206         3.71133         4.89144
   C        3.88291         4.39989         5.68241
   O        6.11220         3.91962         5.19432
   C        7.09379         3.25954         4.43218
   C        2.46286         1.86412         2.59077
   C        3.13132         1.47198         1.51398
   H        0.92444         1.68962        -3.67351
   H        0.01287         4.55683        -7.92434
   H       -0.95693         6.62840        -8.86808
   H       -2.52898         9.25329        -6.83633
   H       -2.26694         8.65202        -8.48140
   H       -0.16342        10.05323        -6.75888
   H       -1.04615        10.78909        -8.10122
   H        0.08800         9.46864        -8.40372
   H       -1.36562         8.19422        -4.90956
   H        0.40621         3.34046         0.89851
   H        0.16843         4.38977         2.30545
   H        1.89206         5.08702        -0.13446
   H        2.49449         4.56719         1.44593
   H        1.65219         6.11238         1.28233
   H       -5.77752         8.14965        -1.20656
   H       -5.12362         7.57995        -2.76109
   H       -4.06270        10.03657        -1.26957
   H       -5.14724        10.07955        -2.66865
   H       -3.51107         9.42982        -2.83011
   H       -3.83052         7.48021         2.20291
   H       -5.44763         9.48529         0.54545
   H       -7.23081        11.29049         5.12537
   H       -2.87441         8.22962         3.65933
   H       -2.25814         8.31448         7.47121
   H       -1.51565         6.97413         4.80561
   H        0.36957         5.70327         4.64397
   H        2.51821         4.62880         8.19553
   H       -0.69762         7.09174         8.56442
   H        0.14875         2.91516         6.24468
   H        0.40527         1.43820         5.28156
   H       -1.01756         2.47230         4.97392
   H        5.02959         2.35188         3.24518
   H        4.25644         5.06386         6.44575
   H        8.04953         3.57722         4.84554
   H        7.04393         3.54653         3.37696
   H        7.00640         2.17173         4.51926
   H        1.42771         1.57355         2.70677
   H        4.15009         1.76277         1.32123
   H        2.67266         0.84510         0.76878
*
