# ORCA input file
# SCF done       -175.439546201330          0.000387418223
! CAM-B3LYP def2-SVP def2/J RIJCOSX Grid4 TightSCF
%maxcore 5000
%tddft
    Mode sTDDFT
    Ethresh 5.0
    maxcore 5000
end

%pal
  nprocs 6
  end
* xyz 0 1
   C      -18.43201        12.60905         3.66956
   N      -18.55589        13.85883         3.13413
   C      -17.64007        14.04571         2.14470
   C      -16.90603        12.88671         2.03849
   C      -17.41824        11.98291         3.01077
   S      -16.47734        10.47438         2.89645
   O      -17.29547         9.38494         2.43622
   O      -15.70248        10.25612         4.08787
   C      -15.44345        11.12799         1.54590
   C      -15.82124        12.38779         1.24460
   C      -14.42960        10.32443         0.97436
   C      -14.16163         9.07340         1.41350
   C      -13.15237         8.25973         0.83546
   N      -12.39029         8.58659        -0.16872
   C      -11.53724         7.60684        -0.47790
   C      -11.61726         6.47404         0.30768
   S      -12.84593         6.62885         1.48286
   C      -10.71894         5.45092        -0.25886
   C       -9.65249         6.35605        -0.90246
   C      -10.48404         7.50249        -1.56275
   C      -11.12177         7.04058        -2.88478
   C      -12.18049         8.00287        -3.41102
   C       -9.76262         8.85246        -1.69788
   C       -8.88829         9.02580        -2.93512
   N       -8.77207         5.46549        -1.63171
   C       -8.89493         4.11482        -1.11941
   S       -9.69258         4.18402         0.54547
   C       -7.47133         5.85467        -1.96752
   C       -6.77081         5.07078        -2.88361
   C       -5.48309         5.42578        -3.28619
   C       -4.93462         6.57295        -2.69527
   N       -5.58500         7.31730        -1.82699
   C       -6.81538         6.98861        -1.47766
   C       -4.80614         4.62300        -4.27749
   C       -3.63035         4.90735        -4.86684
   C       -3.06441         4.07388        -5.87437
   N       -3.57074         2.96353        -6.32046
   C       -2.82775         2.43955        -7.30048
   C       -1.69187         3.15173        -7.63106
   S       -1.54049         4.54835        -6.66231
   C       -0.91297         2.40213        -8.63636
   C       -2.05789         1.62620        -9.29261
   C       -2.96948         1.17095        -8.11971
   C       -2.39216         0.00269        -7.29887
   C       -2.35111        -1.33141        -8.03385
   C       -4.40885         0.92365        -8.58592
   C       -5.37835         0.62698        -7.44752
   N       -1.45290         0.70948       -10.25182
   C       -0.18111         1.28091       -10.69997
   S       -0.01786         3.01523       -10.09907
   C       -2.31880         0.35701       -11.29165
   N       -2.26945        -0.90717       -11.82187
   C       -3.20652        -1.04814       -12.80367
   C       -3.87485         0.14766       -12.90976
   C       -3.31073         1.03203       -11.94937
   S       -4.09579         2.61292       -12.15298
   O       -3.16279         3.56649       -12.68615
   O       -4.84129         3.01359       -10.98775
   C       -5.19847         1.99604       -13.45414
   C       -4.92915         0.70597       -13.71288
   C       -6.14581         2.92091       -14.00114
   C       -7.01071         2.66510       -14.98126
   H      -19.06523        12.26915         4.46336
   H      -19.23026        14.54615         3.43064
   H      -17.57844        14.96739         1.60195
   H      -15.35766        12.98629         0.47561
   H      -13.85102        10.73184         0.15483
   H      -14.72526         8.65500         2.23407
   H      -11.27753         4.88326        -1.01464
   H       -9.10635         6.82173        -0.06367
   H      -10.32953         6.90526        -3.62184
   H      -11.59158         6.06720        -2.73087
   H      -11.74693         8.95896        -3.68780
   H      -12.94059         8.18158        -2.65451
   H      -12.65965         7.57824        -4.29050
   H      -10.53323         9.62557        -1.69447
   H       -9.15804         9.00887        -0.80130
   H       -9.48765         9.09918        -3.83800
   H       -8.19141         8.20088        -3.05086
   H       -8.31073         9.94250        -2.84078
   H       -7.92605         3.62672        -1.01858
   H       -9.55070         3.50703        -1.75184
   H       -7.23970         4.19168        -3.30266
   H       -3.93172         6.90206        -2.92461
   H       -7.27620         7.65679        -0.76641
   H       -5.31695         3.72160        -4.58923
   H       -3.06743         5.79513        -4.62093
   H       -0.19612         1.74043        -8.13289
   H       -2.65528         2.37106        -9.84816
   H       -1.37874         0.26060        -6.98299
   H       -2.99273        -0.09444        -6.39346
   H       -1.73344        -1.25099        -8.92326
   H       -3.34742        -1.65058        -8.32580
   H       -1.92714        -2.09318        -7.38267
   H       -4.75085         1.81423        -9.11581
   H       -4.41047         0.09972        -9.30348
   H       -5.18181        -0.34234        -6.99530
   H       -6.39629         0.62254        -7.82960
   H       -5.29612         1.39556        -6.68452
   H       -0.09398         1.28657       -11.78624
   H        0.64597         0.71235       -10.26312
   H       -1.62782        -1.62204       -11.51804
   H       -3.31835        -1.96644       -13.34376
   H       -5.44045         0.11138       -14.45351
   H       -6.11012         3.89973       -13.54115
   H       -7.06452         1.70036       -15.45637
   H       -7.69167         3.41711       -15.33840
*
