# ORCA input file
# SCF done       -193.706581566754          0.000564124703
! CAM-B3LYP def2-SVP def2/J RIJCOSX Grid4 TightSCF
%maxcore 5000
%tddft
    Mode sTDDFT
    Ethresh 5.0
    maxcore 5000
end

%pal
  nprocs 6
  end
* xyz 0 1
   C       -0.14577        -0.52706        -2.54399
   S        0.99844         0.63870        -3.01739
   C        1.63435        -0.38233        -4.26699
   C        0.98495        -1.61393        -4.28506
   C       -0.05579        -1.68089        -3.28598
   C       -0.89374        -2.83341        -3.16554
   C       -1.92543        -2.88651        -2.13959
   C       -3.04291        -3.59955        -2.21771
   C       -0.67071        -3.86586        -4.03826
   C        0.33725        -3.80257        -5.01424
   C        1.16534        -2.72297        -5.16360
   C        2.21784        -2.76543        -6.22243
   C        2.70700         0.16217        -5.06494
   S        4.26661        -0.62880        -5.10398
   C        4.91095         0.59320        -6.10963
   C        4.00255         1.57190        -6.38104
   C        2.74019         1.34136        -5.76804
   C        1.65957         2.38198        -5.92078
   C        1.83470         3.08064        -7.27992
   C        3.18734         3.77831        -7.31227
   C        4.32872         2.77009        -7.23111
   N        5.52805         3.38777        -6.59304
   O        5.35357         4.10537        -5.64148
   O        6.60082         3.07627        -7.04887
   N        0.30154         1.93226        -5.71459
   C       -0.27115         0.80152        -6.19360
   C        0.17525        -0.02539        -7.15897
   C       -0.52654        -1.22270        -7.49835
   S       -1.92361        -1.73621        -6.58672
   C       -2.10611        -3.13695        -7.56127
   C       -1.15860        -3.20822        -8.53618
   C       -0.24202        -2.12785        -8.49760
   C        0.85773        -1.95841        -9.50495
   C        1.06672        -3.23629       -10.33265
   C       -0.25088        -3.87239       -10.75893
   C       -1.06638        -4.31213        -9.53620
   N       -0.38227        -5.49024        -8.93400
   O        0.51024        -5.28436        -8.14715
   O       -0.75250        -6.57874        -9.29863
   N        0.55777        -0.82265       -10.36264
   C        1.38875         0.24251       -10.46367
   C        1.04006         1.46324       -10.91353
   C        1.96421         2.54192       -11.04154
   S        3.66299         2.31840       -10.70668
   C        3.98799         3.98486       -10.97195
   C        2.86351         4.67161       -11.31375
   C        1.70770         3.85135       -11.37891
   C        0.35863         4.38237       -11.78129
   C        0.47538         5.81743       -12.32842
   C        1.38512         6.66524       -11.44965
   C        2.82428         6.15099       -11.54790
   N        3.61708         6.83212       -10.49350
   O        3.39752         6.50902        -9.34962
   O        4.40522         7.67291       -10.84396
   N       -0.29584         3.49339       -12.72273
   C        0.26447         3.08902       -13.90955
   C        1.52682         3.27646       -14.32653
   C        2.02804         2.77952       -15.57964
   S        3.02638         3.85925       -16.50465
   C        3.06017         2.80578       -17.84779
   C        2.35369         1.65075       -17.61279
   C        1.78870         1.60784       -16.28674
   C        1.14835         0.40684       -15.84600
   C        0.80384         0.19493       -14.44460
   C       -0.18643        -0.57300       -14.00788
   C        0.98068        -0.59981       -16.76307
   C        1.44801        -0.50569       -18.08911
   C        2.15516         0.57458       -18.52600
   C        2.72566         0.65587       -19.90620
   H       -0.82208        -0.29411        -1.74692
   H       -1.74455        -2.28477        -1.25873
   H       -3.28770        -4.18823        -3.08534
   H       -3.76401        -3.60719        -1.41870
   H       -1.26647        -4.76304        -3.96941
   H        0.46268        -4.64380        -5.68029
   H        1.97463        -3.54166        -6.94336
   H        3.18686        -3.00095        -5.78229
   H        2.29980        -1.80941        -6.73182
   H        5.92795         0.53090        -6.44422
   H        1.84176         3.13881        -5.14486
   H        1.04028         3.81635        -7.40592
   H        1.75743         2.35743        -8.09246
   H        3.26148         4.45345        -6.45625
   H        3.28486         4.38045        -8.21582
   H        4.65462         2.43705        -8.22229
   H       -0.18579         2.37563        -4.95548
   H       -1.22129         0.57031        -5.72662
   H        1.09481         0.17277        -7.68584
   H       -2.90879        -3.81936        -7.36575
   H        1.80026        -1.73555        -8.99339
   H        1.64208        -3.94394        -9.73353
   H        1.65434        -2.98500       -11.21647
   H       -0.06497        -4.73454       -11.40301
   H       -0.84580        -3.15307       -11.32448
   H       -2.05443        -4.66919        -9.84345
   H       -0.42273        -0.63882       -10.51887
   H        2.41622         0.04174       -10.18593
   H        0.01838         1.66964       -11.19200
   H        4.98700         4.35446       -10.85166
   H       -0.28172         4.40149       -10.88656
   H       -0.51869         6.26617       -12.37095
   H        0.87100         5.78267       -13.34486
   H        1.05842         6.59566       -10.40846
   H        1.34505         7.71121       -11.75898
   H        3.27396         6.42833       -12.50814
   H       -1.30098         3.56628       -12.73599
   H       -0.41230         2.50769       -14.52105
   H        2.20543         3.91403       -13.78154
   H        3.58846         3.09994       -18.73135
   H        1.44195         0.69426       -13.72764
   H       -0.87253        -1.06455       -14.67762
   H       -0.34901        -0.72693       -12.95535
   H        0.52055        -1.52522       -16.45038
   H        1.27410        -1.33843       -18.75603
   H        2.46866        -0.23079       -20.48030
   H        3.81131         0.74159       -19.86378
   H        2.34222         1.53349       -20.42627
*
