# ORCA input file
# SCF done       -141.162670292097          0.000652665538
! CAM-B3LYP def2-SVP def2/J RIJCOSX Grid4 TightSCF
%maxcore 5000
%tddft
    Mode sTDDFT
    Ethresh 5.0
    maxcore 5000
end

%pal
  nprocs 6
  end
* xyz 0 1
   C        9.76874        -1.16610         2.45861
   C       10.82944        -0.71884         3.18577
   S       12.12813        -0.23265         2.16022
   C       11.22896        -0.64016         0.71749
  Cl       11.89017        -0.43006        -0.82720
   C        9.99687        -1.12208         1.04606
   C        8.82107        -1.62260         0.32617
   O        8.67395        -1.70901        -0.86852
   C        7.83047        -1.95637         1.40476
   C        8.44304        -1.69100         2.70726
   C        7.92058        -1.91858         3.95044
   C        8.65523        -1.61951         5.11898
   N        9.23575        -1.38061         6.07887
   C        6.65194        -2.46322         4.23670
   N        5.63845        -2.90470         4.54636
   C        6.53667        -2.30834         1.22067
   C        5.85127        -2.60412        -0.01744
   C        6.41639        -3.30672        -1.08117
   C        5.66226        -3.54929        -2.22521
   C        4.33883        -3.10314        -2.22979
   N        3.79277        -2.43896        -1.22887
   C        4.51643        -2.19115        -0.16057
   C        6.23270        -4.26696        -3.36826
   C        5.87049        -3.94946        -4.67305
   C        6.46111        -4.63072        -5.73581
   C        7.37652        -5.64238        -5.42300
   N        7.69375        -5.97348        -4.19106
   C        7.14705        -5.30916        -3.19230
   C        6.12552        -4.34943        -7.11711
   S        5.87515        -5.67221        -8.19536
   C        5.47657        -4.63416        -9.53010
   C        5.51525        -3.29856        -9.13251
   C        5.93248        -3.13653        -7.76567
   C        6.15876        -1.81885        -7.26961
   C        6.77596        -1.57546        -6.02270
   N        7.31072        -1.30503        -5.04493
   C        5.84045        -0.72939        -8.05254
   C        5.27169        -0.89353        -9.32017
   C        5.11202        -2.14891        -9.86923
   C        4.44547        -2.24629       -11.10976
   N        3.84507        -2.26380       -12.08728
   C        5.30063        -5.18951       -10.83195
   S        6.08631        -4.49508       -12.21093
   C        5.53939        -5.73660       -13.27440
   C        4.78211        -6.68273       -12.57825
   C        4.65507        -6.37788       -11.18150
   C        3.89677        -7.21840       -10.34572
   C        3.30714        -8.34187       -10.86938
   C        2.54503        -9.19331       -10.03708
   N        1.93315        -9.87181        -9.34566
   C        3.45234        -8.66114       -12.25745
   C        2.84255        -9.83074       -12.76656
   N        2.35903       -10.77563       -13.19830
   C        4.16933        -7.84098       -13.09285
   C        5.86132        -5.72768       -14.66898
   C        6.56581        -4.77442       -15.27928
   H       10.94026        -0.63634         4.24870
   H        5.89376        -2.33459         2.09305
   H        7.42878        -3.66925        -1.01709
   H        3.67769        -3.31520        -3.05956
   H        4.02701        -1.62322         0.61957
   H        5.13252        -3.18349        -4.86077
   H        7.87186        -6.19873        -6.20868
   H        7.43009        -5.64327        -2.20363
   H        6.01713         0.26554        -7.67278
   H        4.95855        -0.02579        -9.88060
   H        3.77144        -6.98273        -9.29971
   H        4.25791        -8.08945       -14.13923
   H        5.48617        -6.56778       -15.23719
   H        6.94529        -3.92093       -14.74167
   H        6.77406        -4.81679       -16.33290
*
