# ORCA input file
# SCF done       -164.351325587792          0.000537984449
! CAM-B3LYP def2-SVP def2/J RIJCOSX Grid4 TightSCF
%maxcore 5000
%tddft
    Mode sTDDFT
    Ethresh 5.0
    maxcore 5000
end

%pal
  nprocs 6
  end
* xyz 0 1
   C        6.12864        -0.66182         5.31870
   C        6.55443        -0.30282         6.56047
   S        8.16930        -0.83858         6.84505
   C        8.27879        -1.56275         5.25852
  Cl        9.68353        -2.35626         4.74484
   C        7.11376        -1.38450         4.57263
   C        6.58855        -1.73837         3.25099
   O        7.16677        -2.32565         2.36652
   C        5.21133        -1.15070         3.22016
   C        4.93509        -0.52381         4.51026
   C        3.77073         0.05088         4.94140
   C        3.66433         0.59998         6.23825
   N        3.56200         1.05503         7.28600
   C        2.57101         0.16309         4.20878
   N        1.56149         0.28617         3.67635
   C        4.38593        -1.06171         2.14263
   C        4.49070        -1.68167         0.86767
   S        3.56506        -0.99370        -0.43825
   C        4.12086        -2.20413        -1.53515
   C        3.58633        -2.26494        -2.87901
   O        3.86830        -3.10604        -3.69717
   C        4.97233        -3.10989        -0.90484
   C        5.15745        -2.81693         0.45294
   C        5.53861        -4.30175        -1.51043
   N        6.38251        -4.34489        -2.58247
   C        6.98658        -3.21904        -3.25000
   C        7.96012        -2.47759        -2.33833
   C        6.72242        -5.67235        -2.91452
   O        7.49373        -5.95800        -3.81258
   C        5.99870        -6.47995        -1.96175
   C        5.30584        -5.59038        -1.08674
   C        4.54226        -6.37830        -0.14684
   O        3.82358        -6.07325         0.78094
   N        4.80928        -7.70887        -0.52772
   C        4.25053        -8.82048         0.20177
   C        5.27863        -9.47322         1.12276
   C        5.66617        -7.77910        -1.60282
   C        6.06007        -9.00126        -2.22368
   C        6.95637        -9.00944        -3.23129
   C        7.38369       -10.14820        -4.00451
   C        8.28347        -9.93448        -5.05054
   C        8.65977       -10.98674        -5.88062
   C        8.13561       -12.25305        -5.57889
   N        7.31811       -12.47487        -4.57163
   C        6.94547       -11.46601        -3.81059
   C        9.57583       -10.81453        -6.98288
   C        9.76026        -9.73364        -7.77065
   C       11.00264        -9.67238        -8.61435
   O       11.74179       -10.59243        -8.86338
   C       11.11692        -8.26077        -8.99145
   C       12.01381        -7.46766        -9.64375
   S       11.44723        -5.81548        -9.69216
   C        9.99991        -6.21759        -8.84234
   C        9.96251        -7.54176        -8.53591
   C        9.04331        -8.46912        -7.90284
   C        7.71580        -8.21675        -7.69797
   C        7.16673        -6.94174        -7.95847
   N        6.71714        -5.90976        -8.17654
   C        6.76059        -9.17648        -7.30812
   N        5.93269        -9.92587        -7.04464
  Cl       13.49063        -7.91554       -10.34199
   H        6.03865         0.24059         7.32703
   H        3.52219        -0.41373         2.23764
   H        2.85947        -1.46041        -3.09710
   H        5.75854        -3.42370         1.10290
   H        6.20738        -2.54695        -3.61523
   H        7.51732        -3.63626        -4.11016
   H        7.45095        -2.07945        -1.46284
   H        8.41432        -1.65326        -2.88109
   H        8.74735        -3.14865        -2.00256
   H        3.83694        -9.55099        -0.49961
   H        3.43314        -8.40606         0.79877
   H        6.12465        -9.85542         0.55554
   H        4.81857       -10.29572         1.66344
   H        5.64579        -8.74615         1.84293
   H        5.60041        -9.91359        -1.87444
   H        7.38874        -8.06565        -3.53721
   H        8.70140        -8.94746        -5.19308
   H        8.37829       -13.11142        -6.19037
   H        6.27479       -11.72388        -3.00307
   H       10.24350       -11.64768        -7.18122
   H        9.28721        -5.44846        -8.62027
*
