# ORCA input file
# SCF done       -150.707619500412          0.000863237912
! CAM-B3LYP def2-SVP def2/J RIJCOSX Grid4 TightSCF
%maxcore 5000
%tddft
    Mode sTDDFT
    Ethresh 5.0
    maxcore 5000
end

%pal
  nprocs 6
  end
* xyz 0 1
   C       11.66840         1.30603        -2.65984
   C       12.31791         2.26775        -3.37118
   S       11.24604         3.07315        -4.45672
   C        9.88913         2.09766        -3.94277
  Cl        8.34704         2.30506        -4.61176
   C       10.27777         1.20770        -2.98669
   C        9.64353         0.16284        -2.17747
   O        8.47151        -0.13460        -2.15100
   C       10.75013        -0.39330        -1.33647
   C       11.98548         0.32520        -1.64257
   C       13.23491         0.11840        -1.12623
   C       14.33794         0.89349        -1.54590
   N       15.24415         1.51537        -1.87406
   C       13.58507        -0.84778        -0.16127
   N       13.94155        -1.61340         0.61624
   C       10.59735        -1.32408        -0.36501
   C        9.40205        -2.08769        -0.08689
   C        8.63456        -2.69517        -1.07952
   C        7.50084        -3.42308        -0.72825
   C        7.19734        -3.51319         0.63558
   N        7.92235        -2.95097         1.58250
   C        8.99343        -2.26697         1.24351
   C        6.67071        -4.06649        -1.73084
   C        6.09487        -5.30936        -1.63938
   C        5.30582        -5.55885        -2.83888
   C        5.45126        -4.40774        -3.64132
   C        4.84876        -4.22765        -4.88307
   C        5.10874        -2.99003        -5.51591
   C        5.89808        -2.05221        -4.89389
   C        6.48854        -2.25641        -3.63055
   C        6.27720        -3.45943        -3.00203
   C        4.05471        -5.30551        -5.34004
   C        3.91370        -6.43429        -4.56812
   C        4.53020        -6.58903        -3.31118
   C        6.29556        -6.26768        -0.56675
   C        7.47718        -6.81612        -0.15449
   O        7.28885        -7.64690         0.88356
   C        5.98641        -7.62079         1.17995
   C        5.30508        -6.80063         0.32148
   C        3.86722        -6.45899         0.35922
   O        3.11834        -6.56134        -0.59067
   C        3.41912        -5.93889         1.64892
   C        2.13158        -5.62458         2.01640
   C        2.03864        -5.08403         3.30071
   C        3.26067        -4.97432         3.92665
   S        4.54392        -5.54388         2.90790
   C        3.56002        -4.41210         5.21078
   S        4.93216        -3.36945         5.38216
   C        4.57710        -3.03547         7.01161
   C        3.45259        -3.70241         7.44250
   C        2.86656        -4.51843         6.41264
   C        1.76376        -5.35176         6.75522
   C        1.24081        -6.32015         5.87015
   N        0.79868        -7.15712         5.22250
   C        1.22711        -5.28876         8.02530
   C        1.75589        -4.43724         9.00519
   C        2.86363        -3.66539         8.73984
   C        3.43410        -2.84495         9.73637
   N        3.90001        -2.17870        10.54522
   H       13.34747         2.56378        -3.33413
   H       11.42539        -1.50997         0.30865
   H        8.94745        -2.65185        -2.11138
   H        6.32876        -4.06139         0.97440
   H        9.54249        -1.81071         2.05631
   H        4.67805        -2.78268        -6.48520
   H        6.07577        -1.10720        -5.38797
   H        7.07684        -1.46879        -3.18388
   H        3.55824        -5.23552        -6.29746
   H        3.29885        -7.24431        -4.93372
   H        4.36853        -7.49083        -2.74174
   H        8.47501        -6.69875        -0.52758
   H        5.64284        -8.24840         1.97875
   H        1.29439        -5.78557         1.36167
   H        1.11673        -4.75357         3.74325
   H        5.19585        -2.37017         7.58082
   H        0.39088        -5.92503         8.27472
   H        1.30393        -4.40938         9.98511
*
