# ORCA input file
# SCF done       -172.556228381448          0.000679652998
! CAM-B3LYP def2-SVP def2/J RIJCOSX Grid4 TightSCF
%maxcore 5000
%tddft
    Mode sTDDFT
    Ethresh 5.0
    maxcore 5000
end

%pal
  nprocs 6
  end
* xyz 0 1
   C        0.43800         3.28407        -2.39693
   C        0.43247         3.08659        -3.77499
   O        1.59922         3.13833        -4.46301
   C        1.49676         3.08140        -5.87002
   C        0.62356         1.93208        -6.35107
   S       -1.11987         2.29619        -5.96254
   C       -0.82886         2.77435        -4.28799
   C       -1.84024         2.75171        -3.32501
   S       -1.12221         3.20281        -1.72969
   N       -1.76583         4.86398        -1.83332
   C       -1.68937         5.61078        -0.59935
   C       -3.19065         2.51000        -3.45435
   C       -4.07250         2.37376        -2.38953
   C       -5.43191         2.13820        -2.49965
   C       -6.25308         1.87879        -3.61765
   O       -5.72278         1.91081        -4.88901
   C       -6.44771         1.17418        -5.84205
   C       -7.89463         1.63522        -5.94391
   S       -8.80663         1.15321        -4.44104
   C       -7.55587         1.55698        -3.27939
   C       -7.83359         1.55063        -1.89623
   S       -6.42513         2.07966        -1.02369
   N       -6.77971         3.81449        -0.91858
   C       -5.77244         4.61689        -0.26307
   C       -9.00113         1.10279        -1.24903
   C       -9.21905         1.12552         0.08668
   C      -10.38923         0.63075         0.76142
   C      -10.54666         0.82433         2.13629
   C      -11.65937         0.32099         2.81086
   C      -12.60463        -0.36165         2.03069
   N      -12.48016        -0.54955         0.73133
   C      -11.41447        -0.07917         0.11508
   C      -11.81734         0.53105         4.22900
   C      -12.64831        -0.16375         5.03444
   C      -12.84170         0.06640         6.41782
   C      -13.57590        -0.73873         7.31075
   O      -14.25172        -1.80162         6.79917
   C      -14.74179        -2.73786         7.73103
   C      -15.53390        -2.07844         8.84802
   S      -14.39387        -1.16314         9.93484
   C      -13.50357        -0.34861         8.64321
   C      -12.68744         0.77599         8.85955
   S      -12.09436         1.37045         7.28350
   N      -13.32021         2.64275         7.13209
   C      -13.37314         3.29687         5.84269
   C      -12.29327         1.47367         9.98706
   C      -12.64834         1.20554        11.30079
   C      -12.31436         2.00385        12.37911
   C      -12.47012         1.74292        13.75115
   O      -13.05638         0.56246        14.15052
   C      -12.74092         0.17467        15.46367
   C      -13.10040         1.24744        16.48284
   S      -11.96517         2.66454        16.32150
   C      -11.94292         2.73203        14.56895
   C      -11.35781         3.81455        13.88920
   S      -11.58497         3.62230        12.17717
   N      -13.10438         4.51396        12.00303
   C      -13.71713         4.51138        10.69430
   C      -10.62896         4.90373        14.43593
   C      -10.08827         5.91123        13.74234
   H        1.30475         3.42516        -1.78911
   H        2.52479         2.95744        -6.22198
   H        1.09704         4.02940        -6.25594
   H        0.90671         1.00017        -5.85995
   H        0.68787         1.82044        -7.43092
   H       -2.71006         4.83139        -2.20539
   H       -0.65698         5.58796        -0.25268
   H       -2.33758         5.22382         0.19692
   H       -1.96536         6.64526        -0.80271
   H       -3.57718         2.41906        -4.45836
   H       -3.66857         2.43761        -1.38473
   H       -6.41931         0.10134        -5.60186
   H       -5.92759         1.34348        -6.78879
   H       -8.40330         1.15812        -6.77871
   H       -7.94344         2.71970        -6.04600
   H       -7.68309         3.89951        -0.46336
   H       -4.83328         4.47609        -0.79592
   H       -5.62496         4.36854         0.79502
   H       -6.06188         5.66447        -0.34127
   H       -9.76528         0.73181        -1.91866
   H       -8.43979         1.52966         0.72731
   H       -9.78699         1.36317         2.69033
   H      -13.50872        -0.76004         2.47058
   H      -11.37207        -0.28193        -0.94602
   H      -11.19057         1.30045         4.66997
   H      -13.23375        -0.98204         4.63958
   H      -13.91028        -3.31400         8.16109
   H      -15.37826        -3.41015         7.14880
   H      -16.02731        -2.82026         9.47170
   H      -16.26757        -1.38195         8.44030
   H      -13.16227         3.30963         7.88220
   H      -13.53019         2.53486         5.08132
   H      -12.46885         3.86543         5.59641
   H      -14.22551         3.97586         5.84161
   H      -11.64128         2.32452         9.81660
   H      -13.21358         0.31459        11.52975
   H      -11.67093        -0.06716        15.54825
   H      -13.32753        -0.73011        15.64427
   H      -12.98943         0.87900        17.50032
   H      -14.11918         1.60074        16.32111
   H      -12.91848         5.45749        12.32918
   H      -13.91299         3.47754        10.41277
   H      -13.10483         4.99271         9.92047
   H      -14.66791         5.03936        10.76264
   H      -10.54052         4.88116        15.51517
   H      -10.15277         5.95086        12.66606
   H       -9.54616         6.70274        14.22453
*
