# ORCA input file
# SCF done       -208.699297654918          0.000600094699
! CAM-B3LYP def2-SVP def2/J RIJCOSX Grid4 TightSCF
%maxcore 5000
%tddft
    Mode sTDDFT
    Ethresh 5.0
    maxcore 5000
end

%pal
  nprocs 6
  end
* xyz 0 1
   C       -2.36973        -0.76498        -4.43145
   N       -2.68835         0.27235        -5.25272
   C       -2.84231         0.19958        -6.68374
   C       -4.12495        -0.52896        -7.07576
   C       -2.92240         1.45473        -4.51928
   O       -3.21843         2.51687        -5.04092
   C       -2.71375         1.06501        -3.14906
   C       -2.37076        -0.32377        -3.13805
   C       -2.16626        -0.72170        -1.75716
   O       -1.86762        -1.78012        -1.25162
   N       -2.41123         0.45426        -1.02344
   C       -2.25253         0.49012         0.41100
   C       -0.90592         1.08421         0.81482
   C       -2.73008         1.51999        -1.83407
   C       -3.03651         2.81102        -1.33961
   C       -3.31043         3.85765        -2.16628
   C       -3.64312         5.14056        -1.67492
   N       -3.90313         6.22288        -2.48387
   C       -3.92312         6.23142        -3.92756
   C       -5.21451         5.63741        -4.48272
   C       -4.21918         7.37103        -1.74374
   O       -4.47619         8.44885        -2.24655
   C       -4.13937         6.94314        -0.36403
   C       -3.77813         5.57359        -0.35416
   C       -3.71261         5.14107         1.02240
   O       -3.44474         4.06618         1.52941
   N       -4.05487         6.28153         1.76342
   C       -4.05484         6.26245         3.20562
   C       -2.79238         6.89777         3.78338
   C       -4.31024         7.36817         0.95338
   C       -4.70132         8.63644         1.44196
   C       -4.90388         9.70302         0.62268
   C       -5.32206        10.98372         1.06263
   S       -5.47109        12.28522        -0.09091
   C       -6.01735        13.39095         1.12777
   C       -6.04825        12.76685         2.38364
   C       -5.66915        11.41786         2.32639
   C       -6.28182        13.43665         3.65633
   O       -6.56918        12.87999         4.68801
   C       -6.40062        14.70127         0.75547
   C       -7.28434        15.47463         1.44419
   C       -7.60269        16.79829         1.05916
   N       -8.53893        17.57567         1.70102
   C       -9.40054        17.17447         2.78581
   C      -10.56392        16.31392         2.29893
   C       -8.64613        18.85722         1.12864
   O       -9.43443        19.69579         1.51058
   C       -7.66278        18.85492         0.06756
   C       -7.05599        17.57561         0.03720
   C       -6.10425        17.55866        -1.04970
   O       -5.35662        16.69362        -1.46653
   N       -6.19331        18.84135        -1.60914
   C       -5.40790        19.20540        -2.76257
   C       -6.21913        19.12246        -4.05364
   C       -7.11399        19.63270        -0.95137
   C       -7.37935        20.97517        -1.30677
   C       -8.17122        21.79323        -0.55897
   C       -8.51042        23.14625        -0.80702
   N       -8.42827        23.87253        -1.98212
   C       -8.11302        23.40863        -3.31219
   C       -9.13717        22.40616        -3.83639
   C       -8.88615        25.19361        -1.81180
   O       -8.92580        26.00443        -2.71762
   C       -9.24081        25.28209        -0.41613
   C       -9.00735        24.00921         0.16521
   C       -9.31169        24.09662         1.57616
   O       -9.22678        23.31103         2.49187
   N       -9.74858        25.43525         1.74497
   C      -10.21350        25.89983         3.02834
   C      -11.73832        25.90740         3.10979
   C       -9.70827        26.14142         0.57201
   C      -10.08116        27.52265         0.46502
   C      -10.04839        28.19432        -0.68826
   H       -2.15828        -1.74033        -4.82862
   H       -1.97170        -0.30352        -7.11559
   H       -2.87394         1.23204        -7.04217
   H       -4.11203        -1.55393        -6.71212
   H       -4.22559        -0.54380        -8.15728
   H       -4.98795        -0.02120        -6.65214
   H       -2.31405        -0.54833         0.74790
   H       -3.06881         1.06175         0.85874
   H       -0.09505         0.50407         0.38057
   H       -0.80926         1.06639         1.89640
   H       -0.82309         2.11419         0.47656
   H       -3.06128         2.95701        -0.26937
   H       -3.27707         3.71277        -3.23646
   H       -3.05880         5.68363        -4.31026
   H       -3.84286         7.28144        -4.22279
   H       -5.29819         4.58493        -4.22475
   H       -5.21854         5.72682        -5.56505
   H       -6.07430         6.17051        -4.08339
   H       -4.09904         5.20808         3.49296
   H       -4.95066         6.76599         3.57996
   H       -1.91441         6.35780         3.43741
   H       -2.82169         6.85485         4.86862
   H       -2.70244         7.93713         3.47520
   H       -4.84306         8.74214         2.50730
   H       -4.74287         9.58733        -0.44117
   H       -5.63988        10.80314         3.20776
   H       -6.12541        14.53263         3.62478
   H       -5.98338        15.08039        -0.16895
   H       -7.79469        15.06897         2.30579
   H       -9.78681        18.10101         3.21995
   H       -8.81704        16.64600         3.54496
   H      -11.16095        16.87135         1.58137
   H      -11.19579        16.04020         3.13912
   H      -10.20484        15.40543         1.81992
   H       -4.58383        18.48770        -2.80465
   H       -4.99272        20.20766        -2.62357
   H       -6.57623        18.10626        -4.19908
   H       -5.59430        19.39525        -4.89930
   H       -7.07816        19.78872        -4.02259
   H       -6.88619        21.34561        -2.19086
   H       -8.57995        21.41218         0.36951
   H       -7.10079        22.99563        -3.34151
   H       -8.12780        24.30696        -3.93815
   H       -9.18591        21.52354        -3.20260
   H       -8.87050        22.10283        -4.84549
   H      -10.12265        22.86483        -3.86184
   H       -9.80623        26.89415         3.23191
   H       -9.81211        25.19702         3.76430
   H      -12.16650        26.56576         2.35689
   H      -12.05333        26.24640         4.09283
   H      -12.12102        24.90266         2.94900
   H      -10.39581        28.01532         1.37475
   H       -9.73837        27.72341        -1.60626
   H      -10.33066        29.23191        -0.73650
*
