# ORCA input file
# SCF done       -213.068214271730          0.000665539609
! CAM-B3LYP def2-SVP def2/J RIJCOSX Grid4 TightSCF
%maxcore 5000
%tddft
    Mode sTDDFT
    Ethresh 5.0
    maxcore 5000
end

%pal
  nprocs 6
  end
* xyz 0 1
   C       -0.81780         5.10211         3.59901
   C       -0.99849         4.76203         2.30194
   C       -0.31960         3.56953         1.93135
   C        0.38880         3.03405         2.99212
   S        0.20878         3.99738         4.42601
   C        1.20827         1.88580         2.97864
   C        1.26924         0.90689         1.99785
   C        0.49071         0.75112         0.76017
   O        0.47905        -0.33902         0.21938
   N       -0.17476         1.81188         0.15777
   C       -0.40546         3.13336         0.53487
   O       -0.77759         3.92779        -0.30760
   C       -0.66575         1.50042        -1.19268
   C        0.41551         1.72606        -2.24071
   C        2.18253        -0.11570         2.32696
   C        2.82110         0.05893         3.52952
   S        2.27930         1.52881         4.29531
   C        3.78711        -0.75844         4.18376
   C        4.24383        -1.92970         3.68966
   C        5.20358        -2.77572         4.31346
   S        5.20250        -4.46837         3.86018
   C        6.39833        -4.84857         5.05227
   N        6.86613        -6.11701         5.17356
   C        6.48734        -7.12446         4.21437
   C        6.79178        -3.72347         5.77693
   C        6.12758        -2.54775         5.30849
   C        6.48723        -1.20249         5.81208
   O        6.63434        -0.90829         6.97157
   O        6.68966        -0.34815         4.79932
   C        7.04693         0.97797         5.16428
   C        7.76233        -3.69732         6.82877
   C        8.15064        -4.75165         7.58501
   C        9.15159        -4.73028         8.59403
   S        9.12432        -5.98847         9.78893
   C       10.49032        -5.35841        10.64711
   C       10.96962        -4.20629        10.01347
   C       10.22106        -3.85896         8.83440
   C       10.65283        -2.77986         8.04292
   C       11.72403        -2.01632         8.44019
   C       12.14966        -0.93767         7.63513
   N       12.47016        -0.06665         6.96182
   C       12.40916        -2.30820         9.66136
   C       13.48471        -1.49099        10.07238
   N       14.36532        -0.84374        10.41878
   C       12.04159        -3.39180        10.42063
   C       10.99749        -6.04758        11.78100
   S       12.69653        -5.94682        12.22437
   C       12.49840        -7.14089        13.46189
   N       13.52733        -7.45530        14.28045
   C       14.87820        -7.04667        13.99780
   C       11.18512        -7.59561        13.54709
   C       10.35390        -6.96472        12.58051
   C        8.90651        -7.27076        12.43990
   O        8.01366        -6.48288        12.61729
   O        8.72387        -8.54693        12.08250
   C        7.37514        -8.97777        11.96942
   C       10.75689        -8.57762        14.50482
   C        9.50671        -8.68298        14.99547
   C        9.07148        -9.71085        15.88420
   C        9.72969       -10.82372        16.34249
   C        8.96035       -11.64562        17.19165
   C        7.68715       -11.13676        17.39798
   S        7.45326        -9.65156        16.53121
   C        6.68418       -11.66895        18.23161
   C        6.63268       -12.94302        18.77730
   C        7.53598       -14.08535        18.59705
   O        7.12638       -15.19966        18.86322
   N        8.86220       -13.92948        18.20080
   C        9.60092       -12.83725        17.76091
   O       10.81612       -12.90867        17.75470
   C        9.66473       -15.15028        18.36345
   C       10.19565       -15.27874        19.78456
   C        5.46568       -13.13897        19.54997
   C        4.64068       -12.05001        19.61223
   S        5.29300       -10.73439        18.67572
   C        3.39047       -11.87312        20.30284
   C        2.79571       -12.80052        21.04908
   H       -1.22190         5.94093         4.12942
   H       -1.59287         5.31867         1.60095
   H       -1.51991         2.14873        -1.38977
   H       -0.98159         0.45655        -1.19124
   H        0.73217         2.76610        -2.23335
   H        0.02259         1.48621        -3.22468
   H        1.27260         1.08718        -2.04088
   H        2.34053        -0.95382         1.67410
   H        4.13921        -0.40107         5.14063
   H        3.82519        -2.31143         2.76863
   H        7.80369        -6.18812         5.54687
   H        5.39979        -7.20126         4.19018
   H        6.90268        -8.08045         4.52359
   H        6.83649        -6.88880         3.20255
   H        7.11399         1.53832         4.23581
   H        8.00660         0.98436         5.68543
   H        6.28843         1.40985         5.82073
   H        8.14258        -2.71646         7.06689
   H        7.61508        -5.68896         7.50973
   H       10.16588        -2.55616         7.10784
   H       12.57715        -3.60670        11.33197
   H       13.40098        -8.26626        14.86672
   H       14.89460        -5.97303        13.80402
   H       15.29117        -7.55958        13.12225
   H       15.50182        -7.25865        14.86267
   H        6.78993        -8.24456        11.41085
   H        6.93636        -9.10004        12.96233
   H        7.40114        -9.93117        11.44848
   H       11.51173        -9.27359        14.84781
   H        8.76235        -7.94378        14.73591
   H       10.74086       -11.07871        16.08504
   H       10.49302       -15.09580        17.65649
   H        9.02133       -15.99677        18.12045
   H       10.82803       -14.42794        20.02614
   H       10.78278       -16.18859        19.87190
   H        9.37051       -15.32595        20.49135
   H        5.26658       -14.07629        20.03537
   H        2.93287       -10.90014        20.18008
   H        3.21894       -13.77953        21.18998
   H        1.85815       -12.60505        21.53831
*
