# ORCA input file
# SCF done       -196.112995560826          0.000201374292
! CAM-B3LYP def2-SVP def2/J RIJCOSX Grid4 TightSCF
%maxcore 5000
%tddft
    Mode sTDDFT
    Ethresh 5.0
    maxcore 5000
end

%pal
  nprocs 6
  end
* xyz 0 1
   C        4.89191        -2.96244        -5.81896
   S        3.35282        -3.68884        -5.83237
   C        3.33458        -3.86297        -4.09781
   C        4.51843        -3.34368        -3.54645
   C        5.40658        -2.82944        -4.54277
   C        6.64162        -2.27177        -4.15381
   C        6.98780        -2.21116        -2.82720
   C        8.27516        -1.64179        -2.42762
   C        8.86821        -0.62469        -3.03702
   C        6.09375        -2.71511        -1.83008
   C        6.45755        -2.62157        -0.38174
   C        4.89281        -3.26518        -2.19444
   C        2.26516        -4.44043        -3.39670
   C        1.11995        -4.92740        -3.95837
   C        0.03366        -5.48624        -3.26055
   S       -1.10775        -6.46492        -4.13689
   C       -2.01550        -6.90580        -2.71231
   C       -1.43447        -6.29570        -1.57943
   C       -0.30809        -5.46142        -1.89795
   C        0.27400        -4.69086        -0.88076
   C       -0.10868        -4.85705         0.42575
   N        0.43155        -3.94241         1.39903
   O        1.56221        -3.54581         1.20327
   O       -0.29690        -3.58606         2.29515
   C       -1.09169        -5.82452         0.75969
   N       -1.30649        -6.24216         2.12064
   O       -0.35464        -6.17990         2.86784
   O       -2.39475        -6.69668         2.39762
   C       -1.76579        -6.49402        -0.23230
   C       -3.15433        -7.72158        -2.77903
   S       -4.32814        -7.71115        -1.49114
   C       -5.32085        -8.92130        -2.24010
   C       -4.76672        -9.30609        -3.47965
   C       -3.56418        -8.61612        -3.79923
   C       -2.92747        -8.91264        -5.00905
   C       -3.47196        -9.80974        -5.90774
   C       -2.74941        -9.99367        -7.16869
   C       -3.28701       -10.09274        -8.37623
   C       -4.66514       -10.50652        -5.57839
   C       -5.25104       -11.54814        -6.48116
   C       -5.28075       -10.25154        -4.37639
   C       -6.47222        -9.41572        -1.61928
   C       -7.06950        -8.85329        -0.52239
   C       -8.16572        -9.40924         0.14692
   S       -8.67963       -11.04839        -0.13524
   C       -9.94779       -10.98623         1.05999
   C       -9.97895        -9.70463         1.65057
   C       -8.97500        -8.81970         1.13287
   C       -8.92089        -7.49002         1.57240
   C       -9.80061        -7.04644         2.52756
   N       -9.86254        -5.62704         2.78373
   O       -8.83167        -5.00141         2.68940
   O      -10.96019        -5.15998         2.99098
   C      -10.71883        -7.94903         3.12287
   N      -11.48219        -7.58571         4.29247
   O      -10.96739        -6.81226         5.06695
   O      -12.54940        -8.13783         4.44645
   C      -10.80750        -9.24704         2.68523
   C      -10.78867       -12.08994         1.28795
   S      -12.34165       -11.88962         2.05179
   C      -12.73363       -13.56517         1.94096
   C      -11.69079       -14.27577         1.33608
   C      -10.58967       -13.44970         0.95729
   C       -9.46776       -14.05258         0.37384
   C       -9.42266       -15.41137         0.14820
   C       -8.23894       -16.00831        -0.46533
   C       -6.99981       -15.55482        -0.32309
   C      -10.53498       -16.23013         0.50343
   C      -10.49068       -17.70914         0.27111
   C      -11.63231       -15.66149         1.08959
   C      -13.97369       -14.07546         2.43409
   C      -14.91684       -13.34192         3.02968
   H        5.34650        -2.66300        -6.74264
   H        7.31624        -1.90978        -4.91435
   H        8.74866        -2.09709        -1.56852
   H        8.41692        -0.11581        -3.87255
   H        9.82135        -0.24758        -2.70836
   H        7.28905        -3.28861        -0.15203
   H        5.61353        -2.90223         0.24293
   H        6.76005        -1.60742        -0.12613
   H        4.22531        -3.63356        -1.42995
   H        2.41400        -4.52301        -2.33167
   H        1.04378        -4.93716        -5.03892
   H        0.99076        -3.91873        -1.10810
   H       -2.51215        -7.21400         0.06440
   H       -2.00270        -8.42214        -5.26720
   H       -1.67029        -9.97586        -7.07161
   H       -4.34883       -10.05387        -8.54380
   H       -2.67143       -10.18480        -9.25491
   H       -4.47771       -12.04437        -7.06178
   H       -5.96098       -11.09653        -7.17394
   H       -5.78905       -12.29095        -5.89593
   H       -6.17968       -10.78999        -4.11593
   H       -6.92102       -10.29971        -2.05374
   H       -6.68514        -7.91666        -0.14168
   H       -8.22065        -6.79060         1.14264
   H      -11.50534        -9.90210         3.18174
   H       -8.62103       -13.45191         0.08829
   H       -8.41126       -16.88985        -1.06737
   H       -6.76384       -14.70569         0.29613
   H       -6.16667       -16.03479        -0.80711
   H      -10.46721       -17.93009        -0.79603
   H      -11.36796       -18.18858         0.69785
   H       -9.60127       -18.14281         0.72558
   H      -12.46677       -16.28228         1.37877
   H      -14.12417       -15.13796         2.29880
   H      -14.79636       -12.28218         3.18329
   H      -15.83209       -13.78219         3.38188
*
