# ORCA input file
# SCF done       -173.450180189334          0.000602872449
! CAM-B3LYP def2-SVP def2/J RIJCOSX Grid4 TightSCF
%maxcore 5000
%tddft
    Mode sTDDFT
    Ethresh 5.0
    maxcore 5000
end

%pal
  nprocs 6
  end
* xyz 0 1
   C       -7.15989        -1.37022        -3.95010
   C       -6.52454        -0.53292        -4.79251
   S       -6.34380         1.07241        -4.16748
   C       -7.17467         0.62346        -2.70155
   C       -7.54925        -0.73853        -2.73022
   C       -8.21584        -1.28994        -1.64062
   C       -8.50434        -0.45702        -0.58021
   C       -8.13553         0.91110        -0.54359
   C       -8.63360         1.54568         0.63423
   C       -9.30141         0.70315         1.44856
   S       -9.38290        -0.91948         0.85403
   C       -7.41900         1.46762        -1.61899
   C       -6.94275         2.83472        -1.66310
   C       -6.48505         3.52843        -0.61046
   C       -6.01237         4.88949        -0.65204
   C       -6.06161         5.71305        -1.73436
   S       -5.44133         7.29126        -1.44601
   C       -5.07966         6.90196         0.21660
   C       -5.44838         5.56454         0.49419
   C       -5.26777         5.05080         1.77320
   C       -4.73987         5.88435         2.73634
   C       -4.38755         7.22811         2.47888
   C       -3.86267         7.85246         3.64851
   C       -3.83184         7.03093         4.71939
   S       -4.42923         5.44301         4.39362
   C       -4.55564         7.76974         1.18379
   C       -4.23098         9.15132         0.95719
   C       -4.01485         9.75438        -0.23220
   C       -3.75006        11.13674        -0.39090
   S       -3.68299        12.23454         0.95063
   C       -3.38834        13.60741        -0.05596
   C       -3.32123        13.23182        -1.39564
   C       -3.53118        11.82421        -1.58990
   C       -3.50111        11.28959        -2.89012
   C       -3.24140        12.11179        -3.95913
   C       -3.21160        11.58315        -5.26859
   N       -3.19434        11.13770        -6.32480
   C       -2.98062        13.50679        -3.75964
   C       -2.67384        14.32153        -4.87269
   N       -2.42444        15.00017        -5.76224
   C       -3.02080        14.05185        -2.50148
   C       -3.31160        14.93855         0.48597
   C       -3.89579        16.01880        -0.10642
   S       -3.66770        17.49913         0.73930
   C       -2.74344        16.68168         1.97385
   C       -2.63536        15.30080         1.70666
   C       -1.89559        14.49767         2.56685
   C       -1.32236        15.09794         3.66908
   C       -1.43120        16.48296         3.94673
   C       -0.79249        16.81375         5.17929
   C       -0.21386        15.75152         5.77585
   S       -0.40049        14.27308         4.89644
   C       -2.13989        17.31248         3.06035
   C       -2.27279        18.74798         3.20292
   C       -1.31727        19.57894         3.64298
   C       -1.45917        21.00977         3.74831
   C       -2.64083        21.68850         3.74344
   S       -2.48451        23.39577         3.89449
   C       -0.74597        23.25669         3.98005
   C       -0.33839        21.90791         3.88601
   C        1.01870        21.60896         3.91427
   C        1.90573        22.65573         4.05765
   C        1.50033        24.00967         4.15479
   C        2.62129        24.87171         4.35184
   C        3.79688        24.21250         4.37261
   S        3.63921        22.50178         4.15952
   C        0.13506        24.32779         4.08979
   C       -0.39127        25.68784         4.12815
   C        0.14691        26.74092         3.52896
   H       -7.35948        -2.40466        -4.16508
   H       -6.13211        -0.74597        -5.76781
   H       -8.50739        -2.32791        -1.63445
   H       -8.52818         2.59532         0.83759
   H       -9.77283         0.92954         2.38511
   H       -6.90698         3.26928        -2.65392
   H       -6.43392         3.04480         0.35363
   H       -6.43030         5.49240        -2.71645
   H       -5.53159         4.03460         2.01694
   H       -3.51397         8.86810         3.69043
   H       -3.48491         7.25578         5.70909
   H       -4.15260         9.76178         1.84734
   H       -4.01947         9.18136        -1.14581
   H       -3.67761        10.23752        -3.05437
   H       -2.80212        15.09881        -2.35695
   H       -4.49727        16.02488        -0.99472
   H       -1.77278        13.44209         2.38701
   H       -0.79852        17.79860         5.60828
   H        0.32400        15.73018         6.70360
   H       -3.20676        19.15482         2.83583
   H       -0.34639        19.18294         3.90414
   H       -3.62906        21.27782         3.67358
   H        1.37655        20.59535         3.83149
   H        2.53624        25.93234         4.49875
   H        4.77940        24.62174         4.50582
   H       -1.33539        25.78929         4.65126
   H        1.04747        26.67017         2.94269
   H       -0.31521        27.71173         3.58209
*
