# ORCA input file
# SCF done       -263.200668865498          0.000890505487
! CAM-B3LYP def2-SVP def2/J RIJCOSX Grid4 TightSCF
%maxcore 5000
%tddft
    Mode sTDDFT
    Ethresh 5.0
    maxcore 5000
end

%pal
  nprocs 6
  end
* xyz 0 1
   C       -1.01642         0.37776         1.39777
   C       -2.15109         1.13524         1.48457
   F       -3.33646         0.53152         1.68499
   C       -2.13310         2.53242         1.37305
   C       -0.93798         3.16404         1.16987
   C        0.26327         2.43201         1.07266
   C        0.22378         1.01147         1.18663
   C        1.41397         0.25470         1.08213
   C        2.60346         0.89928         0.87215
   C        2.63813         2.32084         0.77597
   C        1.50398         3.07501         0.86749
   C        4.03236         2.76407         0.58915
   O        4.44011         3.88974         0.41761
   C        4.85617         1.52820         0.71485
   C        3.95875         0.38886         0.68470
   C        4.28036        -0.88611         0.30215
   C        5.56269        -1.27514        -0.13743
   N        6.56436        -1.63131        -0.56998
   C        3.34415        -1.93646         0.21476
   N        2.62128        -2.82624         0.15647
   C        6.19272         1.63387         0.90798
   C        7.12300         0.64519         1.38336
   C        8.45150         0.69777         0.93495
   C        9.34552        -0.24655         1.36963
   C        8.95786        -1.22635         2.30191
   C        7.65741        -1.25590         2.78878
   C        6.74892        -0.33243         2.31660
   C       10.10242        -2.06075         2.59264
   C       11.19332        -1.60212         1.83215
   C       10.79460        -0.41712         0.98589
   C       10.93384        -0.72878        -0.51691
   C       10.13376        -1.95243        -0.94694
   C       11.62451         0.83170         1.33683
   C       11.53506         1.20593         2.81153
   C       12.41872        -2.21221         1.91907
   C       12.59119        -3.30707         2.78112
   C       11.49309        -3.74990         3.53479
   C       10.25676        -3.14379         3.44754
   C       13.85406        -3.98718         2.93090
   C       14.97862        -3.73605         2.23007
   C       16.23527        -4.39840         2.39163
   C       17.31394        -4.06358         1.61055
   C       18.58875        -4.62597         1.70367
   C       18.90436        -5.58441         2.77248
   C       17.99037        -6.07999         3.63480
   S       16.33242        -5.64340         3.62961
   C       20.30208        -5.82199         2.66795
   C       20.82527        -5.07268         1.61442
   C       22.21452        -5.27120         1.45708
   C       22.70044        -6.14345         2.37848
   S       21.50154        -6.76176         3.46487
   C       19.75928        -4.34161         0.98019
   C       19.94118        -3.51591        -0.15991
   C       18.98199        -3.18561        -1.06001
   C       19.17414        -2.31584        -2.16699
   C       20.23141        -1.49689        -2.47042
   C       20.05461        -0.74475        -3.64994
   C       20.92087         0.22243        -4.20629
   C       22.23258         0.51159        -3.66642
   C       22.87962         1.71461        -3.63998
   C       24.19519         1.61921        -3.13821
   C       24.57589         0.35833        -2.78354
   S       23.27605        -0.74946        -3.06413
   C       25.87998        -0.10344        -2.24518
  Cl       25.22305         2.99268        -2.99543
   C       20.47011         0.87092        -5.34977
   C       19.23578         0.57959        -5.98461
   C       18.36154        -0.37461        -5.41768
   C       18.80219        -1.00971        -4.26605
   S       17.89303        -2.18083        -3.35576
   C       17.07034        -0.65017        -6.01262
   C       16.17297         0.24511        -6.52175
   C       15.00890        -0.37671        -7.02204
   C       15.00403        -1.73724        -6.91091
   S       16.46567        -2.27731        -6.15802
   C       13.96079        -2.70255        -7.33924
  Cl       13.71037         0.52322        -7.71013
   C       19.08002         1.29484        -7.18917
   C       20.13754         2.11471        -7.49541
   S       21.36325         2.06895        -6.23866
   C       20.21290         2.99551        -8.60237
   C       21.29013         3.68426        -9.06594
   C       21.09196         4.92027        -9.87162
   O       20.07857         5.26902       -10.43228
   C       22.37226         5.64966        -9.76785
   C       22.68330         6.90563       -10.20240
   C       23.97496         7.42156        -9.95247
   C       24.92412         6.62210        -9.25074
   C       26.20514         7.14890        -8.99550
   C       26.51099         8.40934        -9.42720
   C       25.59329         9.20976       -10.12083
   C       24.34484         8.71450       -10.37609
   F       27.73467         8.91448        -9.18393
   C       24.57902         5.31886        -8.82261
   C       23.32415         4.84006        -9.08184
   C       22.70583         3.55007        -8.79548
   C       23.37379         2.37237        -8.58753
   C       22.73807         1.11341        -8.64288
   N       22.26099         0.07462        -8.74874
   C       24.76638         2.28483        -8.39645
   N       25.89446         2.16531        -8.21996
   H       -1.06879        -0.69630         1.48427
   H       -3.06064         3.07726         1.44972
   H       -0.89821         4.23924         1.08060
   H        1.35621        -0.81800         1.17932
   H        1.55291         4.15034         0.78333
   H        6.60225         2.62304         0.72310
   H        8.73932         1.45589         0.22162
   H        7.35804        -1.99148         3.52003
   H        5.73813        -0.33234         2.69972
   H       11.99146        -0.88584        -0.74163
   H       10.59812         0.14110        -1.08503
   H       10.45810        -2.83561        -0.40048
   H       10.27935        -2.13418        -2.00919
   H        9.07187        -1.80650        -0.76718
   H       11.27336         1.66752         0.72841
   H       12.66752         0.64408         1.07362
   H       10.50573         1.41659         3.09337
   H       12.13394         2.09182         3.00985
   H       11.90228         0.39519         3.43716
   H       13.24614        -1.84505         1.33236
   H       11.62682        -4.59215         4.19865
   H        9.42686        -3.50539         4.03592
   H       13.87520        -4.76927         3.68012
   H       14.97922        -2.97338         1.46367
   H       17.16030        -3.27090         0.89200
   H       18.24276        -6.80069         4.39664
   H       22.82393        -4.79956         0.70759
   H       23.71247        -6.47818         2.49723
   H       20.95324        -3.17227        -0.33035
   H       18.00137        -3.63283        -0.98747
   H       21.09928        -1.41634        -1.84401
   H       22.43325         2.64882        -3.92559
   H       26.46459         0.75280        -1.91738
   H       26.44331        -0.63491        -3.01296
   H       25.73234        -0.78092        -1.40608
   H       16.30850         1.31075        -6.50298
   H       13.09582        -2.16457        -7.71905
   H       13.65212        -3.32892        -6.50341
   H       14.34196        -3.35544        -8.12416
   H       18.23997         1.17379        -7.84857
   H       19.26661         3.22850        -9.08066
   H       21.95230         7.50136       -10.72835
   H       26.93783         6.55941        -8.46685
   H       25.89114        10.19691       -10.43693
   H       23.62035         9.31250       -10.90826
   H       25.31092         4.73428        -8.28744
*
