# ORCA input file
# SCF done       -221.383631449036          0.000503301027
! CAM-B3LYP def2-SVP def2/J RIJCOSX Grid4 TightSCF
%maxcore 5000
%tddft
    Mode sTDDFT
    Ethresh 5.0
    maxcore 5000
end

%pal
  nprocs 6
  end
* xyz 0 1
   C        0.44612         1.02411        -2.01277
   C       -0.89137         0.88152        -2.25928
   F       -1.54689         1.84326        -2.93061
   C       -1.61868        -0.23978        -1.83557
   C       -0.97010        -1.22975        -1.15156
   C        0.40843        -1.13439        -0.86980
   C        1.12970         0.01608        -1.30575
   C        2.50934         0.14262        -1.02102
   C        3.14346        -0.84935        -0.32291
   C        2.42341        -2.00919         0.08675
   C        1.08986        -2.15425        -0.16984
   C        3.34127        -2.93642         0.76744
   O        3.08873        -3.99491         1.29301
   C        4.69743        -2.32031         0.63004
   C        4.52092        -0.96432         0.14978
   C        5.36956         0.09440         0.33956
   C        6.59912         0.01199         1.02088
   N        7.59439        -0.00194         1.59340
   C        5.06629         1.42063        -0.03814
   N        4.87019         2.51500        -0.32015
   C        5.78479        -3.09383         0.88942
   C        7.13868        -2.88353         0.53623
   C        7.66939        -2.08474        -0.46664
   C        9.05739        -2.13233        -0.49263
   C        9.59622        -2.98354         0.49494
   S        8.38963        -3.73972         1.42528
   C       11.01094        -2.91977         0.42749
   C       11.35797        -2.01637        -0.60207
   C       10.14766        -1.49996        -1.21604
   C       10.05818        -0.60216        -2.23961
   C       11.20965        -0.06381        -2.85238
   N       12.16196         0.35825        -3.33192
   C        8.80693        -0.16590        -2.72427
   N        7.77651         0.17539        -3.09305
   C       12.72899        -1.85586        -0.73833
   C       13.43398        -2.64258         0.16205
   S       12.37412        -3.56186         1.22134
   C       14.82827        -2.74624         0.37282
   N       15.28701        -3.26651         1.50311
   C       16.62573        -3.13286         1.45609
   C       17.05177        -2.48354         0.20820
   C       18.51651        -2.34552         0.17070
   O       19.20386        -1.83996        -0.69140
   C       18.92917        -2.96297         1.44324
   C       17.74537        -3.42480         2.19868
   N       18.11831        -4.01107         3.36091
   C       19.42832        -3.94919         3.37100
   C       20.00017        -3.31532         2.20038
   C       15.91043        -2.26970        -0.52491
   C       15.73732        -1.79583        -1.85263
   C       16.70265        -1.16376        -2.56442
   C       16.50364        -0.68564        -3.88489
   C       15.35560        -0.73252        -4.66589
   C       15.55161        -0.16252        -5.91739
   C       16.85720         0.33889        -6.09547
   S       17.83515         0.09535        -4.72031
   C       16.95022         0.89523        -7.39411
   C       15.70488         0.73690        -8.03981
   C       14.78560         0.07462        -7.13001
   C       13.48145        -0.24735        -7.36808
   C       12.86610         0.05937        -8.60070
   N       12.38622         0.30402        -9.61286
   C       12.68013        -0.92576        -6.42631
   N       12.02905        -1.50308        -5.67901
   C       15.69249         1.25881        -9.32594
   C       16.91064         1.82754        -9.67498
   S       18.09524         1.67393        -8.37930
   C       17.31628         2.42302       -10.88688
   C       16.57089         2.86756       -11.93773
   C       17.25405         3.05003       -13.25212
   O       18.44811         3.05987       -13.44486
   C       16.16907         3.15230       -14.24305
   C       16.25148         3.20786       -15.60462
   C       15.06203         3.26478       -16.36443
   C       13.80380         3.25216       -15.69405
   C       12.62207         3.29518       -16.45893
   C       12.70681         3.35349       -17.82235
   C       13.93396         3.37116       -18.49956
   C       15.09096         3.32695       -17.77283
   F       11.57965         3.39565       -18.55478
   C       13.74894         3.20328       -14.28115
   C       14.91520         3.16512       -13.56655
   C       15.16430         3.14776       -12.12616
   C       14.27640         3.58129       -11.17558
   C       14.61839         3.79097        -9.82616
   N       14.87303         3.99417        -8.72504
   C       12.94841         3.96407       -11.45962
   N       11.86292         4.28876       -11.63961
   H        0.97325         1.90260        -2.35052
   H       -2.67228        -0.29660        -2.05863
   H       -1.50879        -2.10288        -0.81554
   H        3.03280         1.01771        -1.37199
   H        0.56131        -3.03655         0.15859
   H        5.56447        -4.02645         1.40116
   H        7.06262        -1.52870        -1.15814
   H       13.18743        -1.16095        -1.41567
   H       19.98392        -4.34763         4.20204
   H       21.04661        -3.17363         2.01570
   H       14.78137        -1.98455        -2.31570
   H       17.67569        -0.99980        -2.12078
   H       14.42220        -1.14714        -4.33371
   H       14.86125         1.19051       -10.00352
   H       18.38946         2.47824       -11.04801
   H       17.21267         3.20706       -16.09639
   H       11.65990         3.28729       -15.97118
   H       13.93848         3.41869       -19.57697
   H       16.04840         3.33878       -18.27159
   H       12.78397         3.18519       -13.79989
*
