# ORCA input file
# SCF done       -192.742153150738          0.000550559633
! CAM-B3LYP def2-SVP def2/J RIJCOSX Grid4 TightSCF
%maxcore 5000
%tddft
    Mode sTDDFT
    Ethresh 5.0
    maxcore 5000
end

%pal
  nprocs 6
  end
* xyz 0 1
   C       -0.11087         1.41069        -0.95390
   C       -1.18421         2.17183        -1.32601
   F       -2.41287         1.84031        -0.89111
   C       -1.05744         3.29743        -2.15130
   C        0.18417         3.65046        -2.60212
   C        1.32529         2.90164        -2.24880
   C        1.17498         1.75864        -1.41040
   C        2.30349         0.98477        -1.05070
   C        3.53993         1.34638        -1.51160
   C        3.68563         2.49931        -2.33590
   C        2.61377         3.25962        -2.70504
   C        5.10934         2.68104        -2.66697
   O        5.61177         3.51791        -3.37934
   C        5.83284         1.62693        -1.89084
   C        4.85223         0.72894        -1.33855
   C        5.07185        -0.55480        -0.90147
   C        6.30737        -1.22011        -1.01246
   N        7.29372        -1.80166        -1.09738
   C        4.07059        -1.39155        -0.36843
   N        3.31135        -2.11079         0.10439
   C        7.19151         1.71587        -1.80727
   C        8.12194         1.11319        -0.93562
   C        7.99205         0.63038         0.36851
   C        9.19583         0.09493         0.88045
   S        9.48664        -0.71995         2.37663
   C        7.75299        -0.82907         3.00372
   C        7.04677         0.50134         2.94625
   S        6.50068         0.85056         1.24689
   C       10.25990         0.23191        -0.02680
   S        9.76701         0.99544        -1.49776
   C       11.53724        -0.25073         0.28378
   N       11.69158        -0.76688         1.50509
   C       12.95732        -1.21127         1.57378
   C       13.66497        -0.95911         0.31603
   C       15.05430        -1.44111         0.40619
   O       15.92363        -1.40370        -0.43948
   C       15.12244        -1.97694         1.77701
   C       13.82273        -1.82038         2.45481
   N       13.87722        -2.30488         3.71734
   C       15.10767        -2.74156         3.86267
   C       15.93816        -2.56581         2.69214
   C       12.77051        -0.32973        -0.52199
   C       12.93121         0.16988        -1.83828
   C       14.06165         0.00001        -2.56925
   C       14.24754         0.54205        -3.86008
   C       15.35582         0.34692        -4.68352
   C       15.26276         1.04029        -5.90665
   S       16.53500         1.15506        -7.10064
   C       17.44960        -0.38062        -6.74946
   C       17.96100        -0.39571        -5.32967
   S       16.62458        -0.72390        -4.13112
   C       14.08057         1.77472        -6.03193
   S       13.10394         1.62106        -4.59314
   C       13.57964         2.63185        -7.03149
   C       13.82367         2.77859        -8.36886
   C       13.40042         4.06190        -9.00422
   O       12.70353         4.91621        -8.50673
   C       14.04870         4.07476       -10.32803
   C       14.07940         5.06983       -11.26098
   C       14.79929         4.86741       -12.46035
   C       15.47345         3.62917       -12.66845
   C       16.19497         3.43724       -13.86233
   C       16.23230         4.43835       -14.79294
   C       15.57564         5.66203       -14.60738
   C       14.87018         5.86497       -13.45371
   F       16.92250         4.25609       -15.93388
   C       15.41417         2.61102       -11.68721
   C       14.71119         2.83096       -10.53462
   C       14.46739         1.97851        -9.37374
   C       14.65768         0.61822        -9.33168
   C       14.16338        -0.20150        -8.30045
   N       13.77052        -0.90416        -7.48116
   C       15.30209        -0.12433       -10.33995
   N       15.85262        -0.77838       -11.10663
   H       -0.24661         0.54837        -0.31999
   H       -1.94025         3.85916        -2.41228
   H        0.30711         4.51336        -3.23910
   H        2.16025         0.12795        -0.41180
   H        2.74649         4.12394        -3.33835
   H        7.62980         2.40381        -2.52673
   H        7.86440        -1.16560         4.03361
   H        7.21855        -1.58941         2.43440
   H        7.68999         1.31431         3.28475
   H        6.12615         0.49767         3.53065
   H       15.41934        -3.18371         4.79292
   H       16.96753        -2.85307         2.60741
   H       12.10332         0.71741        -2.27024
   H       14.88853        -0.57032        -2.16225
   H       18.27089        -0.38456        -7.46611
   H       16.78401        -1.22153        -6.94967
   H       18.44257         0.54794        -5.07067
   H       18.66594        -1.21347        -5.17851
   H       12.86485         3.36162        -6.65469
   H       13.56376         6.00225       -11.08631
   H       16.71109         2.50681       -14.04058
   H       15.64094         6.41532       -15.37635
   H       14.35588         6.79954       -13.28736
   H       15.93773         1.68588       -11.86929
*
