# ORCA input file
# SCF done       -188.726465709916          0.000429330113
! CAM-B3LYP def2-SVP def2/J RIJCOSX Grid4 TightSCF
%maxcore 5000
%tddft
    Mode sTDDFT
    Ethresh 5.0
    maxcore 5000
end

%pal
  nprocs 6
  end
* xyz 0 1
   C       -1.11553         6.91061        -2.83836
   N       -2.41142         6.88282        -2.83730
   C       -2.75354         5.77476        -2.10526
   C       -1.55271         5.07476        -1.64041
   C       -1.91247         3.89561        -0.83900
   O       -1.18501         3.09578        -0.29796
   C       -3.39397         3.94418        -0.85475
   C       -3.85625         5.11222        -1.64599
   N       -5.21527         5.17244        -1.65463
   C       -5.60745         4.15306        -0.94061
   C       -4.51985         3.34431        -0.40497
   C       -0.48154         5.80487        -2.09991
   C        0.90142         5.56038        -1.90118
   C        1.89089         6.40115        -2.29411
   C        3.27269         6.18606        -2.06437
   C        3.91906         5.08997        -1.51086
   C        5.29363         5.28507        -1.41625
   C        5.70626         6.54389        -1.89775
   S        4.40207         7.47013        -2.48349
   C        7.10411         6.66367        -1.71155
   C        7.58083         5.48216        -1.11573
   C        6.46306         4.56990        -0.92762
   C        6.50998         3.31008        -0.40937
   C        5.36044         2.49984        -0.28820
   N        4.43169         1.83509        -0.19334
   C        7.71861         2.72993         0.03182
   N        8.70189         2.26176         0.38989
   C        8.94842         5.52082        -0.85262
   C        9.51599         6.72213        -1.23991
   S        8.34115         7.81628        -1.95666
   C       10.86179         7.13198        -1.07327
   C       11.42982         8.33891        -1.44274
   C       12.76924         8.42004        -1.06641
   C       13.22326         7.26422        -0.40711
   S       12.00685         6.07478        -0.26003
   C       14.57406         7.46018        -0.02952
   C       14.97766         8.74071        -0.45021
   C       13.86003         9.38179        -1.12520
   C       13.83545        10.62351        -1.68752
   C       12.67989        11.13828        -2.31294
   N       11.73929        11.55438        -2.81924
   C       14.96339        11.47165        -1.67876
   N       15.87966        12.16036        -1.67040
   C       16.28938         9.04160        -0.08793
   C       16.88510         8.00293         0.60595
   S       15.80770         6.62589         0.80269
   C       18.18654         7.96407         1.16379
   C       18.76132         6.92048         1.87125
   C       20.04502         7.23527         2.30726
   C       20.45363         8.52774         1.92972
   S       19.25482         9.35148         1.03146
   C       21.75594         8.76261         2.43258
   C       22.17155         7.60497         3.13316
   C       21.11410         6.61250         3.07439
   C       21.11163         5.36583         3.62843
   C       20.01101         4.49245         3.50116
   N       19.11464         3.78540         3.39611
   C       22.20827         4.87586         4.36884
   N       23.09887         4.48315         4.97459
   C       23.44109         7.73310         3.68187
   C       23.99538         8.97612         3.41357
   S       22.93019         9.99335         2.44338
   C       25.24057         9.56333         3.72523
   N       25.52196        10.72096         3.12744
   C       26.75334        11.05944         3.53321
   C       27.30179        10.04908         4.45813
   C       28.65521        10.44358         4.89588
   O       29.41687         9.85400         5.63120
   C       28.85663        11.72865         4.20600
   C       27.67842        12.06360         3.38152
   N       27.85507        13.24956         2.75181
   C       29.04110        13.66363         3.13109
   C       29.71859        12.76625         4.04195
   C       26.33085         9.09574         4.61216
   C       26.30585         7.93658         5.46456
   C       27.37361         7.48281         6.12026
   H       -0.59624         7.69614        -3.35955
   H       -6.65637         3.96671        -0.78697
   H       -4.63759         2.47166         0.20652
   H        1.13861         4.64621        -1.37497
   H        1.63877         7.32604        -2.79509
   H        3.40390         4.20132        -1.19606
   H        9.51558         4.72990        -0.39545
   H       10.87922         9.11015        -1.95095
   H       16.79732         9.96476        -0.30257
   H       18.25368         5.98999         2.05224
   H       23.94554         6.95422         4.22228
   H       29.43146        14.59746         2.76505
   H       30.68920        12.92452         4.46863
   H       25.35313         7.44117         5.58179
   H       28.33576         7.95956         6.03859
   H       27.30624         6.62006         6.76053
*
