# ORCA input file
# SCF done       -193.778885124194          0.000404460623
! CAM-B3LYP def2-SVP def2/J RIJCOSX Grid4 TightSCF
%maxcore 5000
%tddft
    Mode sTDDFT
    Ethresh 5.0
    maxcore 5000
end

%pal
  nprocs 6
  end
* xyz 0 1
   C       -4.62342        -0.77596         3.03823
   C       -3.81144        -1.59638         2.29760
   C       -3.08012        -2.67501         2.83344
   N       -2.45381        -3.55687         3.21921
   C       -3.54597        -1.42004         0.92306
   N       -3.25097        -1.31535        -0.18144
   C       -4.80248        -0.83124         4.48292
   C       -5.54426         0.30522         4.88904
   C       -5.85061         0.55847         6.20404
   C       -5.37225        -0.33381         7.16681
   C       -4.63407        -1.46667         6.75097
   C       -4.35451        -1.74349         5.41821
   S       -4.12479        -2.41643         8.11053
   C       -4.88944        -1.31200         9.20169
   C       -5.50176        -0.27922         8.58357
   C       -5.90311         1.11101         3.70662
   O       -6.60749         2.09955         3.70612
   C       -5.32480         0.38994         2.54471
   C       -5.59966         0.68667         1.23962
   C       -6.10158         1.93996         0.79543
   C       -7.02521         2.01923        -0.27535
   C       -7.67581         3.25209        -0.63417
   N       -8.74054         3.23083        -1.44006
   C       -9.09186         2.10440        -2.01553
   C       -8.31544         0.91811        -1.81253
   N       -7.35267         0.89064        -0.92353
   C       -8.61493        -0.26005        -2.54266
   N       -8.88796        -1.19883        -3.13895
   C      -10.26597         2.06328        -2.80626
   N      -11.22013         1.97513        -3.43367
   C       -7.30118         4.48701        -0.04311
   C       -6.30656         4.41249         0.95840
   C       -5.70844         3.16865         1.36776
   N       -4.75063         3.35942         2.27397
   S       -4.65350         4.92822         2.60935
   N       -5.79760         5.45397         1.61112
   C       -7.92982         5.71983        -0.32407
   S       -7.88180         6.96162         0.88361
   C       -8.95360         7.99377        -0.03196
   C       -9.23951         7.40470        -1.27127
   C       -8.66970         6.13554        -1.44391
   C       -8.66598         5.43182        -2.66813
   N       -8.56627         4.96167        -3.70956
   C      -10.10272         8.11029        -2.26662
   F      -11.31915         8.39910        -1.75526
   F       -9.57649         9.30098        -2.62800
   F      -10.31807         7.43328        -3.39093
   C       -9.41636         9.20146         0.50950
   C       -9.10939         9.52626         1.81229
   C       -9.54330        10.59987         2.57385
   C       -9.22848        10.67097         3.92767
   C       -9.61598        11.61794         4.89119
   C       -9.18713        11.33381         6.16582
   C       -8.43912        10.15185         6.25627
   S       -8.27097         9.41753         4.68287
   C       -7.88280         9.50462         7.35910
   C       -7.92438         9.83090         8.72506
   C       -7.29800         8.91319         9.52515
   C       -6.72314         7.82303         8.83365
   S       -7.01251         8.01815         7.11522
   C       -6.05260         6.76025         9.40297
   C       -5.43539         5.67232         8.76536
   C       -4.78173         4.61952         9.43704
   C       -4.24422         3.73216         8.48542
   C       -3.50180         2.56803         8.61044
   C       -3.07568         1.93944         7.43848
   C       -2.33110         0.77931         7.22261
   C       -2.16480         0.58462         5.82234
   C       -2.81456         1.62042         5.16256
   C       -3.40220         2.48475         6.13035
   C       -4.15772         3.61685         5.99395
   C       -4.58415         4.26064         7.17380
   C       -5.30680         5.42140         7.35554
   C       -1.46388        -0.49672         5.17140
   C       -0.96600        -1.57129         5.77691
   H       -6.42301         1.42975         6.48266
   H       -3.80448        -2.62964         5.14999
   H       -4.83403        -1.51158        10.25429
   H       -6.02896         0.50530         9.09584
   H       -5.50270        -0.07712         0.47796
   H      -10.05019         9.84077        -0.08646
   H       -8.47253         8.81749         2.33212
   H      -10.16529        11.37120         2.14342
   H      -10.20850        12.47774         4.63307
   H       -9.40146        11.94536         7.02416
   H       -8.41451        10.71653         9.08740
   H       -7.23495         8.99277        10.59633
   H       -5.99017         6.77315        10.48492
   H       -4.70119         4.51901        10.50395
   H       -3.25202         2.16063         9.57998
   H       -1.93317         0.14148         7.99056
   H       -2.87218         1.76545         4.09881
   H       -4.42471         4.00874         5.02420
   H       -5.69357         6.03589         6.56577
   H       -1.36748        -0.39537         4.09759
   H       -1.04988        -1.72323         6.83966
   H       -0.47138        -2.34693         5.21992
*
