# ORCA input file
# SCF done       -166.731066899216          0.000778473456
! CAM-B3LYP def2-SVP def2/J RIJCOSX Grid4 TightSCF
%maxcore 5000
%tddft
    Mode sTDDFT
    Ethresh 5.0
    maxcore 5000
end

%pal
  nprocs 6
  end
* xyz 0 1
   C       -9.62577        -1.16193        -5.16408
   C       -8.83372        -2.18545        -5.62211
   C       -9.32823        -3.41012        -6.11380
   N       -9.67115        -4.42309        -6.53254
   C       -7.42465        -2.16784        -5.65691
   N       -6.27921        -2.23910        -5.70981
   C      -11.07996        -1.19316        -5.07096
   C      -11.52444         0.01510        -4.48139
   C      -12.85237         0.28774        -4.26227
   C      -13.78925        -0.68202        -4.63507
   C      -13.33638        -1.88573        -5.22461
   C      -11.99354        -2.15943        -5.45170
   S      -14.66016        -2.94141        -5.61888
   C      -15.78717        -1.76708        -4.99329
   C      -15.20552        -0.64262        -4.51349
  Br      -17.62612        -2.13579        -5.03383
   C      -10.36311         0.88378        -4.20034
   O      -10.41397         2.03756        -3.82836
   C       -9.17238         0.10162        -4.61915
   C       -7.89948         0.58827        -4.63364
   C       -7.46552         1.73634        -3.90129
   C       -6.48868         2.58742        -4.40690
   C       -6.12300         3.76764        -3.77694
   C       -6.71244         4.14182        -2.57718
   C       -7.61183         3.22028        -1.95211
   N       -8.09522         3.53069        -0.73574
   C       -8.89623         2.66763        -0.16379
   C       -9.18371         1.43015        -0.76514
   N       -8.73288         1.11319        -1.94923
   C       -7.97981         2.01638        -2.60076
   N       -6.48569         5.28609        -1.88238
   C       -5.95306         6.49422        -2.28119
   C       -5.76115         6.94625        -3.55576
   S       -5.20206         8.56957        -3.60241
   C       -5.21299         8.66548        -1.88907
   C       -5.62092         7.50076        -1.30548
   N       -5.75346         7.33029         0.06188
   C       -5.42033         6.20558         0.76555
   C       -5.55117         6.11285         2.11075
   C       -5.15808         4.98450         2.85765
   C       -5.28034         4.87983         4.21734
   C       -4.83158         3.82009         5.04334
   C       -5.06829         4.00234         6.37181
   C       -5.74180         5.20540         6.67809
   S       -6.04391         6.11700         5.21326
   C       -6.15626         5.65612         7.91573
   C       -5.92784         5.06648         9.17823
   C       -6.48705         5.74827        10.21487
   C       -7.21164         6.91004         9.84208
   S       -7.10872         7.11389         8.09740
   C       -7.90081         7.71532        10.71056
   C       -8.71819         8.83450        10.44277
   C       -9.43131         9.53774        11.41548
   C      -10.18891        10.55695        10.78384
   C      -11.07043        11.48933        11.27791
   C      -11.69393        12.35399        10.35919
   C      -12.62614        13.36253        10.53298
   C      -12.94447        13.93094         9.25536
   C      -12.20177        13.27124         8.29684
   C      -11.40409        12.27027         8.93781
   C      -10.52368        11.34921         8.44230
   C       -9.90620        10.47069         9.36098
   C       -9.01779         9.43352         9.16849
   C      -13.87877        14.99836         8.99300
   C      -14.62338        15.61986         9.90382
   H      -13.15973         1.22048        -3.81569
   H      -11.70002        -3.08844        -5.91109
   H      -15.75086         0.18242        -4.09275
   H       -7.15254         0.10221        -5.24825
   H       -6.03599         2.34454        -5.35743
   H       -5.36886         4.39362        -4.22464
   H       -9.29256         2.93892         0.80479
   H       -9.77586         0.68129        -0.25646
   H       -6.95454         5.28104        -0.97882
   H       -5.97350         6.44785        -4.47790
   H       -4.91955         9.57355        -1.40264
   H       -5.88183         8.17306         0.60508
   H       -5.02608         5.38272         0.18782
   H       -5.95862         6.95101         2.66165
   H       -4.70821         4.15383         2.33030
   H       -4.33840         2.95968         4.62577
   H       -4.78953         3.30036         7.13737
   H       -5.35427         4.16341         9.28711
   H       -6.41524         5.44783        11.24575
   H       -7.83507         7.43085        11.75471
   H       -9.42056         9.33403        12.47055
   H      -11.29106        11.55827        12.33394
   H      -13.04735        13.67294        11.47162
   H      -12.21492        13.46422         7.23947
   H      -10.30363        11.27600         7.38631
   H       -8.61658         9.11780         8.22360
   H      -13.95825        15.28665         7.95161
   H      -14.58500        15.36512        10.94902
   H      -15.30639        16.40590         9.63160
*
