# ORCA input file
# SCF done       -208.079740512450          0.000523005819
! CAM-B3LYP def2-SVP def2/J RIJCOSX Grid4 TightSCF
%maxcore 5000
%tddft
    Mode sTDDFT
    Ethresh 5.0
    maxcore 5000
end

%pal
  nprocs 6
  end
* xyz 0 1
   C       -5.25352        -2.98301        -0.23174
   C       -6.13139        -3.79443        -0.90389
   C       -6.13408        -5.20159        -0.81257
   N       -6.19004        -6.34787        -0.77373
   C       -7.12848        -3.35401        -1.79945
   N       -7.95046        -3.08489        -2.55557
   C       -4.16128        -3.43986         0.61699
   C       -3.39896        -2.31602         1.01512
   C       -2.29206        -2.41819         1.82191
   C       -1.91699        -3.69380         2.25581
   C       -2.68705        -4.81189         1.85614
   C       -3.80744        -4.70769         1.04161
   S       -2.05168        -6.29168         2.51001
   C       -0.77622        -5.40025         3.29711
   C       -0.82234        -4.06387         3.08444
  Br        0.49433        -6.31840         4.32723
   C       -3.98443        -1.08642         0.44042
   O       -3.57729         0.04012         0.62164
   C       -5.18967        -1.53262        -0.30494
   C       -6.18802        -0.73676        -0.78306
   C       -6.19300         0.68142        -0.98602
   C       -7.42845         1.35421        -0.89477
   C       -7.47379         2.71200        -1.06411
   C       -6.30271         3.43248        -1.37408
   C       -5.09034         2.77060        -1.52615
   C       -5.04115         1.40796        -1.32688
   C       -6.64081         4.82929        -1.48939
   C       -8.01898         4.98179        -1.24689
   C       -8.66070         3.64226        -0.96948
   C       -9.72571         3.30158        -2.02901
   C       -9.17690         3.32922        -3.45044
   C       -9.29403         3.60030         0.43347
   C       -8.29968         3.92872         1.54077
   C       -8.59788         6.22418        -1.27610
   C       -7.81328         7.36075        -1.55003
   C       -6.44067         7.18517        -1.80076
   C       -5.85414         5.93982        -1.77198
   C       -8.44301         8.64984        -1.54157
   C       -7.84414         9.84273        -1.79484
   C       -8.49876        11.08668        -1.72644
   C       -7.87637        12.28343        -1.96707
   C       -8.43367        13.58440        -1.87490
   C       -7.56106        14.59163        -2.14721
   C       -6.25979        14.15016        -2.48449
   S       -6.18510        12.40034        -2.43649
   C       -5.15628        14.90444        -2.81391
   C       -5.03971        16.31632        -2.86784
   C       -3.80713        16.75588        -3.22344
   C       -2.86248        15.72081        -3.49178
   S       -3.63194        14.15459        -3.23974
   C       -1.55264        15.88819        -3.81070
   C       -0.61375        14.85688        -4.14282
   C       -0.81106        13.74300        -4.93225
   C       -1.96650        13.29099        -5.74702
   N        0.37819        13.06844        -4.99156
   C        1.34350        13.68645        -4.27724
   C        2.70038        13.10589        -4.17811
   C        0.77336        14.83704        -3.72080
   C        1.32795        15.77456        -2.82159
   C        2.60592        15.82505        -2.34220
   C        2.97874        16.79029        -1.39557
   C        4.17560        16.96993        -0.74758
   C        5.37618        16.18338        -0.64532
   C        5.51593        14.82282        -0.80027
   C        6.73789        14.13325        -0.66330
   N        7.70057        13.51017        -0.59362
   C        4.47226        13.90919        -1.01711
   N        3.68123        13.08525        -1.15719
   C        6.43158        17.06022        -0.13328
   C        5.85226        18.29401         0.25168
   C        4.41074        18.26678        -0.06998
   O        3.59243        19.13653         0.14035
   C        6.58141        19.31220         0.81365
   C        7.95360        19.10817         0.99722
   C        8.52636        17.87975         0.59522
   C        7.78624        16.84657         0.03188
   S       10.23685        17.84101         0.90257
   C       10.15750        19.45244         1.56403
   C        8.91719        19.99448         1.55300
  Br       11.72138        20.26762         2.20464
   H       -1.73236        -1.54128         2.10747
   H       -4.36431        -5.58874         0.76999
   H       -0.11530        -3.36596         3.49436
   H       -7.13280        -1.22003        -1.00664
   H       -8.32059         0.79104        -0.66020
   H       -4.19743         3.31411        -1.79479
   H       -4.10978         0.88542        -1.46519
   H      -10.54485         4.01869        -1.94292
   H      -10.12682         2.30881        -1.81515
   H       -8.78980         4.31621        -3.69459
   H       -9.96406         3.08299        -4.15913
   H       -8.37234         2.60646        -3.56650
   H       -9.70795         2.60366         0.60062
   H      -10.12029         4.31367         0.46514
   H       -7.47480         3.21957         1.54130
   H       -8.79136         3.88487         2.50987
   H       -7.89149         4.92811         1.40684
   H       -9.65492         6.34684        -1.08588
   H       -5.82678         8.04611        -2.01348
   H       -4.79675         5.82906        -1.96076
   H       -9.49834         8.65519        -1.29542
   H       -6.79531         9.87899        -2.05725
   H       -9.54515        11.10971        -1.45190
   H       -9.46445        13.72945        -1.60255
   H       -7.81401        15.63654        -2.11908
   H       -5.86919        16.95958        -2.63396
   H       -3.53136        17.79209        -3.31229
   H       -1.17020        16.90077        -3.78008
   H       -2.62273        14.12871        -5.96583
   H       -2.54961        12.53431        -5.22068
   H       -1.61769        12.86314        -6.68619
   H        0.51111        12.20887        -5.50209
   H        2.75229        12.17203        -4.73445
   H        2.95340        12.90181        -3.13309
   H        3.44998        13.78823        -4.57806
   H        0.63234        16.51312        -2.44117
   H        3.34493        15.12894        -2.69590
   H        2.24643        17.56181        -1.17359
   H        6.10917        20.23733         1.10476
   H        8.27261        15.93133        -0.26128
   H        8.68824        20.97785         1.92125
*
