# ORCA input file
# SCF done       -147.660177483290          0.000507755851
! CAM-B3LYP def2-SVP def2/J RIJCOSX Grid4 TightSCF
%maxcore 5000
%tddft
    Mode sTDDFT
    Ethresh 5.0
    maxcore 5000
end

%pal
  nprocs 6
  end
* xyz 0 1
   C        1.38022       -16.96791        16.59875
   C        1.03629       -16.94916        15.30419
   C       -0.12826       -17.53002        14.69810
   C       -0.21360       -17.34742        13.36271
   C        0.86685       -16.61199        12.79802
   S        2.00935       -16.16025        14.05217
   C        1.04538       -16.26984        11.48198
   C        0.19339       -16.56118        10.38395
   C        0.63570       -16.07310         9.19984
   C        1.86699       -15.36087         9.27487
   S        2.44177       -15.35382        10.93623
   C        2.49185       -14.75922         8.22171
   C        3.70366       -14.03471         8.22474
   S        4.70826       -13.87039         9.64445
   C        5.83554       -12.91115         8.77536
   C        5.47574       -12.71880         7.47290
   C        4.26368       -13.36170         7.14691
   C        3.62509       -13.25700         5.79817
   C        4.55108       -12.64923         4.73535
   C        5.35787       -11.48352         5.32918
   C        6.26286       -11.94411         6.46598
   C        5.45369       -13.67900         4.10089
   C        6.04566       -14.66283         4.76410
   C        5.61857       -13.58198         2.62611
   S        5.99681       -11.89184         1.91184
   C        4.51710       -12.40572         1.16109
   C        4.36116       -13.59316         1.78471
   C        3.31596       -14.59680         1.76785
   O        3.28914       -15.53157         2.54292
   C        2.25118       -14.37369         0.70216
   C        2.85666       -14.36160        -0.66810
   C        3.82825       -15.19767        -1.03934
   C        4.44302       -15.23037        -2.33440
   S        4.06765       -14.03822        -3.55073
   C        5.14061       -14.78799        -4.66459
   C        5.75407       -15.88579        -4.14539
   C        5.36008       -16.13938        -2.80504
   C        5.87327       -17.31407        -2.03743
   C        7.21622       -17.80914        -2.58693
   C        7.12083       -17.98886        -4.10843
   C        6.78142       -16.70568        -4.86556
   C        8.35043       -16.92261        -2.11578
   C        9.46056       -17.46130        -1.61399
   C        8.18576       -15.47746        -2.17649
   C        8.42402       -14.62446        -1.15745
   C        8.30417       -13.19854        -1.20422
   C        8.55249       -12.57374        -0.03299
   C        8.86672       -13.45331         1.04255
   S        8.86658       -15.11916         0.48157
   C        9.10120       -13.12366         2.34983
   C        9.10471       -11.82253         2.93207
   C        9.31205       -11.80895         4.26498
   C        9.49768       -13.10601         4.85387
   S        9.39831       -14.33659         3.58560
   C        9.70592       -13.39871         6.14395
   H        0.75699       -17.45926        17.32501
   H        2.27962       -16.49825        16.95207
   H       -0.85037       -18.05870        15.29509
   H       -1.01901       -17.71452        12.75093
   H       -0.71813       -17.11835        10.50702
   H        0.12422       -16.19270         8.26054
   H        1.99701       -14.83838         7.26235
   H        6.70662       -12.53965         9.27767
   H        2.73521       -12.62390         5.88906
   H        3.29235       -14.23996         5.45492
   H        3.91302       -12.23831         3.94391
   H        4.65332       -10.73835         5.70555
   H        5.96151       -11.01717         4.54801
   H        6.73737       -11.08371         6.94248
   H        7.05817       -12.57957         6.06576
   H        6.68395       -15.37494         4.26945
   H        5.89365       -14.81033         5.81824
   H        6.37259       -14.27982         2.26128
   H        3.95816       -11.86251         0.42372
   H        1.74714       -13.42556         0.89896
   H        1.51322       -15.17653         0.78714
   H        2.46472       -13.64375        -1.37613
   H        4.19830       -15.92798        -0.33124
   H        5.25614       -14.36819        -5.64449
   H        5.14100       -18.12600        -2.10665
   H        5.98360       -17.06337        -0.98011
   H        7.40532       -18.80197        -2.16325
   H        6.33902       -18.72884        -4.29816
   H        8.06154       -18.39357        -4.48683
   H        6.41607       -16.95669        -5.86498
   H        7.68755       -16.10787        -5.00553
   H       10.28568       -16.85581        -1.28108
   H        9.59304       -18.52769        -1.54677
   H        7.82983       -15.03967        -3.09614
   H        8.03630       -12.70094        -2.11995
   H        8.50520       -11.50932         0.11057
   H        8.94482       -10.94397         2.33301
   H        9.34196       -10.92336         4.87481
   H        9.75862       -12.61818         6.88237
   H        9.82744       -14.41103         6.48251
*
