# ORCA input file
# SCF done       -185.667226900547          0.000868396567
! CAM-B3LYP def2-SVP def2/J RIJCOSX Grid4 TightSCF
%maxcore 5000
%tddft
    Mode sTDDFT
    Ethresh 5.0
    maxcore 5000
end

%pal
  nprocs 6
  end
* xyz 0 1
   C      -22.95884        -4.04429        -5.19480
   S      -21.69750        -2.90228        -4.77598
   C      -20.62964        -4.24207        -4.67278
   C      -21.30951        -5.42312        -4.96004
   N      -22.61110        -5.28249        -5.24839
   C      -20.39425        -6.60303        -4.87716
   C      -19.10178        -5.93612        -4.50664
   C      -19.27550        -4.55691        -4.39478
   S      -17.82556        -3.74734        -3.97668
   C      -16.96322        -5.27353        -3.95184
   C      -17.79331        -6.33837        -4.25556
   C      -15.56946        -5.24864        -3.65182
   C      -14.78983        -6.34686        -3.61349
   N      -13.43877        -6.41820        -3.36498
   C      -12.51319        -5.45895        -3.14073
   S      -12.86478        -3.76565        -3.07530
   C      -11.17615        -3.42578        -2.83248
   N      -10.80271        -2.09251        -2.68547
   O       -9.62006        -1.84651        -2.51638
   O      -11.69825        -1.26253        -2.74037
   C      -10.39745        -4.55056        -2.80896
   C      -11.13740        -5.73406        -2.97605
   C      -10.58209        -7.05433        -2.98158
   C       -9.26881        -7.34721        -3.11981
   C       -8.75223        -8.66741        -3.12883
   S       -9.76752       -10.04766        -2.83112
   C       -8.44447       -11.14313        -3.10467
   C       -7.26728       -10.43677        -3.41687
   C       -7.44448        -9.04080        -3.43729
   C       -6.45303        -8.02502        -3.81523
   C       -5.87178        -7.97841        -5.00341
   O       -6.15399       -11.17328        -3.59964
   C       -4.87612       -10.58051        -3.52091
   C       -8.55929       -12.53575        -3.03559
   C       -9.67977       -13.20949        -2.61811
   C       -9.85486       -14.59582        -2.57901
   C       -9.06966       -15.59195        -3.12718
   C       -9.33649       -16.97627        -3.02987
   C       -8.46606       -17.77312        -3.71756
   C       -7.46694       -17.05611        -4.40343
   S       -7.64798       -15.34513        -4.12470
   C       -6.46157       -17.55099        -5.22421
   C       -6.18292       -18.88966        -5.55058
   C       -5.14177       -19.03545        -6.42644
   C       -4.55712       -17.81981        -6.83249
   S       -5.35119       -16.47896        -6.04782
   C       -3.51058       -17.66089        -7.72872
   C       -3.02849       -16.42300        -8.11917
   C       -2.01859       -16.13285        -9.01981
   C       -1.98061       -14.79065        -9.63160
   O       -2.61060       -13.80997        -9.29030
   C       -1.05055       -14.90545       -10.77669
   C       -0.74163       -13.98103       -11.73001
   C        0.14966       -14.33643       -12.76863
   C        0.70204       -15.64877       -12.79411
   C        1.58262       -16.00033       -13.83595
   C        1.90090       -15.09141       -14.80605
   C        1.35455       -13.79441       -14.77936
   C        0.49702       -13.42286       -13.78185
   F        1.68226       -12.92151       -15.74554
   F        2.74006       -15.42967       -15.79742
   C        0.36921       -16.58274       -11.78399
   C       -0.49221       -16.21471       -10.78738
   C       -1.00026       -16.94254        -9.62069
   C       -0.43994       -18.09668        -9.11758
   C       -0.72733       -18.63569        -7.84969
   N       -0.88027       -19.09445        -6.80716
   C        0.57567       -18.82271        -9.76649
   N        1.39191       -19.46808       -10.25451
   H      -23.95300        -3.69726        -5.38949
   H      -20.32899        -7.13247        -5.82928
   H      -20.72317        -7.31834        -4.12134
   H      -17.45800        -7.35840        -4.29351
   H      -15.16184        -4.26935        -3.45928
   H      -15.22249        -7.31858        -3.79876
   H      -13.05451        -7.35423        -3.38485
   H       -9.33556        -4.50502        -2.65499
   H      -11.26427        -7.88917        -2.87220
   H       -8.54859        -6.55729        -3.27201
   H       -6.25178        -7.26155        -3.07364
   H       -6.09032        -8.70317        -5.77085
   H       -5.16485        -7.20758        -5.25699
   H       -4.18956       -11.40267        -3.32085
   H       -4.82133        -9.84920        -2.71119
   H       -4.59802       -10.09742        -4.46084
   H       -7.66304       -13.07198        -3.31039
   H      -10.50992       -12.61239        -2.25927
   H      -10.74848       -14.95057        -2.07959
   H      -10.16880       -17.34630        -2.45701
   H       -8.52955       -18.84533        -3.75699
   H       -6.74849       -19.70835        -5.14324
   H       -4.77937       -19.98041        -6.78960
   H       -3.10215       -18.56553        -8.15364
   H       -3.56503       -15.54893        -7.75956
   H       -1.17286       -12.99202       -11.69660
   H        2.01218       -16.98940       -13.87001
   H        0.08617       -12.42533       -13.77553
   H        0.79977       -17.56999       -11.83319
*
