# ORCA input file
# SCF done       -174.860202766554          0.000379747224
! CAM-B3LYP def2-SVP def2/J RIJCOSX Grid4 TightSCF
%maxcore 5000
%tddft
    Mode sTDDFT
    Ethresh 5.0
    maxcore 5000
end

%pal
  nprocs 6
  end
* xyz 0 1
   C        2.44260        -0.13256         6.77646
   O        2.65412        -1.32422         6.79749
   N        3.16995         0.72733         5.95982
   C        3.61215         2.01387         6.19881
   N        4.40127         2.42965         5.26927
   C        4.50634         1.40994         4.36405
   C        3.78035         0.34242         4.77937
   N        1.48935         0.45818         7.57565
   C        0.89968         1.72588         7.52632
   C        0.03438         1.78870         8.56424
   N        0.04788         0.62053         9.27805
   C        0.88502        -0.16426         8.67110
   N        1.17177        -1.42700         9.04535
   C        0.59903        -1.98711        10.14886
   S       -0.43309        -1.04181        11.15642
   C       -0.59327        -2.41492        12.21769
   N       -1.45174        -2.32689        13.31421
   O       -1.54193        -3.29917        14.04508
   O       -2.06979        -1.28563        13.45423
   C        0.12071        -3.51072        11.81038
   C        0.80457        -3.29052        10.60163
   C        1.55093        -4.34149         9.94691
   C        1.74314        -4.49625         8.62734
   C        2.38949        -5.65255         8.04598
   C        3.45163        -6.32038         8.51383
   C        4.28131        -5.91080         9.68861
   C        3.80317        -7.66632         7.92480
   N        3.15421        -8.66760         8.75420
   C        3.72398        -9.16359         9.87126
   C        3.01427        -9.51757        10.97914
   C        3.54897       -10.14627        12.11385
   C        2.84398       -10.29363        13.28364
   C        3.20043       -11.01423        14.44573
   C        2.25649       -10.99068        15.43082
   C        1.12119       -10.21481        15.11220
   S        1.26839        -9.54026        13.51495
   C       -0.01427        -9.97437        15.86956
   C       -0.46382       -10.60211        17.04488
   C       -1.71367       -10.20455        17.42579
   C       -2.31320        -9.24406        16.57672
   S       -1.20331        -8.81798        15.30879
   C       -3.56507        -8.68065        16.78848
   C       -4.26858        -7.72382        16.07104
   C       -4.09942        -7.15804        14.81393
   C       -4.69248        -5.82076        14.57250
   O       -5.48099        -5.23242        15.27908
   C       -4.11044        -5.35621        13.29027
   C       -4.24548        -4.15447        12.66282
   C       -3.55332        -3.93384        11.44743
   C       -2.72488        -4.96539        10.92021
   C       -2.00809        -4.72653         9.73175
   C       -2.11786        -3.52445         9.09304
   C       -2.95112        -2.51313         9.60029
   C       -3.65361        -2.71062        10.75720
   F       -3.04009        -1.34732         8.93583
   F       -1.40008        -3.28789         7.97333
   C       -2.61976        -6.20787        11.58808
   C       -3.31208        -6.40216        12.75005
   C       -3.42454        -7.56650        13.62949
   C       -3.10835        -8.86408        13.26218
   C       -3.55598        -9.98448        13.98471
   N       -3.93031       -10.91638        14.54304
   C       -2.39896        -9.19604        12.09781
   N       -1.78351        -9.50833        11.17721
   H        3.36681         2.56270         7.08523
   H        5.10377         1.52064         3.48252
   H        3.61510        -0.62967         4.36508
   H        1.10688         2.41939         6.74018
   H       -0.61063         2.59106         8.85700
   H        1.81398        -1.96453         8.46697
   H        0.11994        -4.44137        12.34884
   H        1.88189        -5.12176        10.61838
   H        1.29013        -3.81785         7.91723
   H        1.93218        -6.00094         7.12665
   H        4.11274        -4.86844         9.94281
   H        5.33760        -6.05029         9.45936
   H        4.05188        -6.52434        10.56179
   H        4.87903        -7.84953         7.93437
   H        3.42882        -7.76585         6.90320
   H        2.14759        -8.55855         8.80290
   H        4.79840        -9.28817         9.83234
   H        1.95508        -9.29194        11.00178
   H        4.55692       -10.53708        12.07298
   H        4.13301       -11.54709        14.51132
   H        2.35065       -11.49385        16.37631
   H        0.11629       -11.35255        17.55135
   H       -2.23786       -10.59518        18.27962
   H       -4.02624        -8.99247        17.71842
   H       -5.07544        -7.24965        16.62422
   H       -4.85802        -3.37456        13.08816
   H       -1.36558        -5.49181         9.32537
   H       -4.27311        -1.91845        11.14708
   H       -1.98651        -6.97177        11.16597
*
