# ORCA input file
# SCF done       -202.000928394122          0.003681701522
! CAM-B3LYP def2-SVP def2/J RIJCOSX Grid4 TightSCF
%maxcore 5000
%tddft
    Mode sTDDFT
    Ethresh 5.0
    maxcore 5000
end

%pal
  nprocs 6
  end
* xyz 0 1
   C        2.56556         2.60429         9.47976
   C        1.69469         3.11780        10.40090
   F        0.96474         2.28047        11.15642
   C        1.53590         4.49501        10.59513
   C        2.27767         5.36022         9.83981
   C        3.18256         4.88475         8.87039
   C        3.32419         3.48008         8.68268
   C        4.20023         2.97773         7.69051
   C        4.89555         3.85259         6.90328
   C        4.78254         5.25573         7.12476
   C        3.95072         5.76791         8.07766
   C        5.67417         5.96509         6.18661
   O        5.87392         7.16171         6.11379
   C        6.21345         4.91759         5.29412
   C        5.82973         3.63141         5.80081
   C        6.36985         2.41520         5.44699
   C        5.97109         1.18514         5.99961
   N        5.67030         0.15135         6.40221
   C        7.46487         2.26275         4.57374
   N        8.39034         2.08941         3.91597
   C        6.82869         5.27165         4.11163
   C        6.87152         4.51353         2.94697
   C        7.52337         4.88351         1.79185
   C        7.42145         4.21567         0.54756
   C        8.19544         4.75201        -0.43258
   C        8.96700         5.86150        -0.00693
   S        8.63140         6.22799         1.67509
   C        9.90144         6.56216        -0.73282
   C       10.31260         6.31691        -2.07235
   C       11.28656         7.14367        -2.51010
   C       11.70799         8.12958        -1.55383
   S       10.79758         7.90023        -0.05522
   C       12.64924         9.06375        -1.78190
   C       13.10083        10.18729        -0.89241
   C       12.28386        10.36157         0.34532
   N       12.59516         9.88792         1.53096
   S       11.46538        10.34670         2.60123
   N       10.55535        11.19979         1.55938
   C       11.09463        11.13700         0.36535
   C       10.54867        11.80384        -0.86658
   C       11.74330        12.22119        -1.66408
   C       12.94383        11.46087        -1.67717
   N       13.86735        11.98609        -2.44753
   S       13.28798        13.35048        -3.11463
   N       11.81809        13.28979        -2.42240
   C        9.73502        10.80629        -1.64688
   C        8.67298        10.13539        -1.16181
   C        7.97933         9.06432        -1.81873
   C        7.04092         8.46558        -1.05326
   C        6.89418         9.04204         0.23865
   S        7.98452        10.39134         0.44155
   C        6.07286         8.61091         1.25373
   C        5.91470         9.18657         2.53572
   C        5.08946         8.48322         3.35774
   C        4.58999         7.28970         2.78304
   S        5.11369         7.14702         1.12257
   C        3.88727         6.29907         3.43944
   C        3.71650         5.02983         2.90083
   C        3.23979         3.87739         3.49024
   C        3.71750         2.58770         2.94490
   O        4.38160         2.43062         1.93643
   C        3.31959         1.56682         3.92627
   C        3.59385         0.22991         3.93625
   C        3.14699        -0.55616         5.02120
   C        2.38993         0.05845         6.06004
   C        1.96174        -0.72677         7.14679
   C        2.29430        -2.05249         7.18806
   C        3.04052        -2.67346         6.17840
   C        3.45130        -1.92888         5.10822
   F        1.89327        -2.80087         8.23257
   C        2.09748         1.44242         6.00735
   C        2.57467         2.19183         4.96716
   C        2.46224         3.62057         4.66979
   C        1.63588         4.50057         5.32984
   C        1.33161         5.79941         4.87695
   N        0.99975         6.84471         4.53354
   C        0.90504         4.18866         6.49181
   N        0.30168         4.01410         7.45420
   H        2.66968         1.53742         9.35851
   H        0.82933         4.84444        11.33080
   H        2.17148         6.42634         9.97099
   H        4.28658         1.90952         7.57308
   H        3.87712         6.83462         8.22777
   H        7.20030         6.29108         4.06301
   H        6.30209         3.59740         2.88698
   H        6.76790         3.36916         0.43247
   H        8.23968         4.38144        -1.44044
   H        9.87795         5.52781        -2.65907
   H       11.73051         7.10548        -3.48898
   H       13.14604         9.04839        -2.74365
   H       14.15546        10.03184        -0.63807
   H        9.93112        12.66219        -0.58412
   H       10.07948        10.56994        -2.64403
   H        8.23962         8.77070        -2.82016
   H        6.43843         7.62542        -1.35292
   H        6.42830        10.09351         2.80278
   H        4.87070         8.74099         4.37816
   H        3.58534         6.51217         4.45324
   H        4.16414         4.86392         1.92319
   H        4.16114        -0.22092         3.13543
   H        1.37872        -0.28689         7.94113
   H        3.27762        -3.72153         6.26888
   H        4.03137        -2.38137         4.31845
   H        1.52044         1.88109         6.80627
*
