# ORCA input file
# SCF done       -174.994451193061          0.000994086306
! CAM-B3LYP def2-SVP def2/J RIJCOSX Grid4 TightSCF
%maxcore 5000
%tddft
    Mode sTDDFT
    Ethresh 5.0
    maxcore 5000
end

%pal
  nprocs 6
  end
* xyz 0 1
   C      -13.07249        -0.54301        -4.60428
   C      -12.53271        -1.38383        -5.54350
   C      -13.26352        -2.37277        -6.23609
   N      -13.79932        -3.18714        -6.84169
   C      -11.18512        -1.38910        -5.95658
   N      -10.09976        -1.44719        -6.32943
   C      -14.45615        -0.56891        -4.14619
   C      -14.62918         0.42945        -3.15582
   C      -15.82720         0.64871        -2.52154
   C      -16.91007        -0.16258        -2.87715
   C      -16.73026        -1.15739        -3.86842
   C      -15.51859        -1.37498        -4.51230
   S      -18.19567        -2.04497        -4.15576
   C      -19.01816        -1.08340        -2.95648
   C      -18.23722        -0.14432        -2.36988
  Br      -20.82831        -1.40835        -2.59357
   C      -13.35609         1.13765        -2.95287
   O      -13.16409         2.10999        -2.24587
   C      -12.38254         0.48869        -3.84767
   C      -11.08600         0.87793        -4.04988
   N      -10.31599         1.69889        -3.30726
   C      -10.35826         2.03400        -1.98025
   S      -11.21871         1.11256        -0.80162
   C      -10.46933         2.03454         0.45116
   N      -10.81894         1.73050         1.77351
   O      -10.29644         2.37351         2.66260
   O      -11.61958         0.82480         1.92917
   C       -9.60940         2.99595        -0.01275
   C       -9.53410         3.01660        -1.41626
   C       -8.67960         3.93283        -2.13177
   C       -8.83651         4.38522        -3.39008
   C       -7.88921         5.28162        -3.99250
   C       -7.94205         5.82386        -5.21826
   C       -9.01106         5.60693        -6.23706
   C       -6.82681         6.73062        -5.68426
   N       -5.98358         6.05382        -6.64316
   C       -5.82675         6.43337        -7.91646
   C       -4.99269         5.85832        -8.81871
   C       -4.83817         6.39956       -10.11597
   S       -3.57016         5.77742       -11.20947
   C       -4.02215         6.96960       -12.33702
   C       -5.06081         7.74719       -11.85863
   N       -5.49893         7.38423       -10.62194
   C       -5.65598         8.80254       -12.60700
   C       -6.66852         9.62813       -12.23043
   C       -7.44835        10.36138       -13.26164
   O       -7.13007        10.57014       -14.40933
   C       -8.72226        10.71703       -12.59705
   C       -9.82662        11.31835       -13.12718
   C      -10.95134        11.54217       -12.30113
   C      -10.90894        11.13588       -10.93563
   C      -12.03646        11.35959       -10.12004
   C      -13.15117        11.95994       -10.63402
   C      -13.19114        12.36314       -11.98351
   C      -12.11470        12.15922       -12.80059
   F      -14.29789        12.94939       -12.46055
   F      -14.22119        12.17053        -9.85480
   C       -9.74715        10.52473       -10.41138
   C       -8.66900        10.31903       -11.23002
   C       -7.33983         9.78212       -10.95848
   C       -6.76738         9.65065        -9.72225
   C       -5.37009         9.55674        -9.51947
   N       -4.25296         9.64232        -9.26781
   C       -7.48301         9.63576        -8.51424
   N       -8.01323         9.50192        -7.50177
   H      -15.92435         1.41576        -1.76957
   H      -15.43478        -2.14527        -5.26030
   H      -18.58190         0.53306        -1.61011
   H      -10.57767         0.51680        -4.93510
   H       -9.47869         2.04955        -3.76558
   H       -9.07639         3.66502         0.63805
   H       -7.84573         4.30638        -1.55110
   H       -9.71345         4.12176        -3.96322
   H       -7.04554         5.53565        -3.36173
   H       -9.75221         4.87944        -5.92349
   H       -8.56629         5.27434        -7.17516
   H       -9.51581         6.55253        -6.43534
   H       -6.21860         7.04998        -4.83096
   H       -7.24481         7.61957        -6.16472
   H       -5.44824         5.26707        -6.30650
   H       -6.41995         7.28135        -8.22387
   H       -4.37329         5.01553        -8.55348
   H       -3.52492         7.05471       -13.28215
   H       -5.32582         8.89531       -13.63506
   H       -9.84250        11.62172       -14.16291
   H      -12.02255        11.06045        -9.08359
   H      -12.16054        12.47359       -13.83149
   H       -9.73838        10.22723        -9.37428
*
