# ORCA input file
# SCF done       -174.828598186548          0.000328317300
! CAM-B3LYP def2-SVP def2/J RIJCOSX Grid4 TightSCF
%maxcore 5000
%tddft
    Mode sTDDFT
    Ethresh 5.0
    maxcore 5000
end

%pal
  nprocs 6
  end
* xyz 0 1
   C       -1.41227         3.52426        -0.59840
   C       -0.49886         3.44869         0.42271
   C        0.86860         3.75190         0.27633
   N        1.98851         4.00132         0.21905
   C       -0.79318         3.06346         1.74581
   N       -0.94089         2.73922         2.83811
   C       -1.10884         3.86482        -1.98391
   C       -2.30275         3.77881        -2.73815
   C       -2.36595         4.07915        -4.07380
   C       -1.18851         4.50215        -4.69832
   C        0.00049         4.59231        -3.94060
   C        0.06530         4.27410        -2.58902
   S        1.32151         5.19563        -4.89885
   C        0.25996         5.33470        -6.27299
   C       -1.00920         4.93089        -6.04154
  Br        0.90840         6.03889        -7.88457
   C       -3.42259         3.41263        -1.84985
   O       -4.58772         3.32953        -2.18174
   C       -2.83883         3.28730        -0.50109
   C       -3.56304         3.27486         0.66200
   C       -4.96803         3.17198         0.76637
   S       -5.73373         4.33475         1.83939
   C       -7.29908         3.94703         1.19965
   C       -7.23556         2.86834         0.34071
   C       -5.92454         2.41269         0.10965
   C       -5.65063         1.18438        -0.69045
   C       -6.89872         0.31275        -0.77608
   C       -8.07732         1.15696        -1.28723
   N       -9.26776         0.39532        -1.62355
   C       -8.44649         2.19351        -0.22408
   C       -8.39445         4.85795         1.41928
   C       -8.92874         5.49462         0.35317
   C       -9.90551         6.51951         0.36297
   C      -10.02283         7.38868        -0.68638
   C      -10.95456         8.44695        -0.86901
   C      -10.76018         9.17662        -1.99860
   C       -9.63902         8.76651        -2.76449
   S       -8.88117         7.37179        -2.02678
   C       -9.10607         9.33745        -3.89604
   C       -9.60647        10.42204        -4.66522
   C       -8.83889        10.74580        -5.73240
   C       -7.65439         9.95458        -5.86695
   S       -7.59956         8.75414        -4.57579
   C       -6.68473        10.05985        -6.80113
   C       -5.48962         9.19298        -6.81201
   S       -5.92320         7.49935        -7.50912
   C       -4.58237         7.54717        -8.74041
   C       -3.53242         8.51265        -8.18658
   C       -4.33650         9.71113        -7.66164
   C       -2.60884         8.91527        -9.35494
   O       -2.73983         9.95507        -9.95532
   N       -1.71198         7.96856        -9.68791
   N       -2.79113         7.85537        -7.12812
   C       -1.63212         8.37804        -6.62734
   C       -1.19852         8.20982        -5.35538
   C        0.09539         8.52052        -4.84680
   C        0.27576         8.19433        -3.54627
   C       -0.86834         7.63299        -2.91318
   S       -2.19575         7.51578        -4.05727
   C       -0.98502         7.24504        -1.60602
   C        0.04595         7.21586        -0.62344
   C       -0.35948         6.82443         0.60255
   C       -1.76111         6.53115         0.70202
   S       -2.50934         6.72316        -0.89424
   C       -2.45040         6.18465         1.79651
   H       -3.29853         4.02128        -4.61225
   H        0.99328         4.37338        -2.05104
   H       -1.79602         4.95192        -6.77306
   H       -3.04734         3.53630         1.57869
   H       -4.80934         0.63586        -0.26028
   H       -5.36533         1.48853        -1.70215
   H       -7.14384        -0.09796         0.20763
   H       -6.71375        -0.52284        -1.45568
   H       -7.76188         1.67847        -2.19805
   H       -9.57479        -0.15033        -0.82429
   H       -9.07569        -0.24875        -2.38260
   H       -8.97684         1.68729         0.59071
   H       -9.13812         2.92197        -0.64650
   H       -8.65528         5.13250         2.43168
   H       -8.50976         5.26688        -0.62104
   H      -10.53795         6.65126         1.22932
   H      -11.74086         8.62499        -0.15641
   H      -11.37208        10.01015        -2.29487
   H      -10.52579        10.91664        -4.40576
   H       -9.05985        11.53163        -6.43267
   H       -6.80133        10.77292        -7.60381
   H       -5.17559         8.98023        -5.78523
   H       -4.97882         7.91049        -9.68880
   H       -4.19705         6.53762        -8.86840
   H       -4.71029        10.27071        -8.52083
   H       -3.69690        10.37249        -7.07497
   H       -1.56207         7.15166        -9.12225
   H       -1.06120         8.15820       -10.43262
   H       -3.39170         7.43246        -6.42718
   H       -0.99943         8.89365        -7.33636
   H        0.84672         8.95996        -5.47933
   H        1.19034         8.35323        -3.00420
   H        1.05988         7.47844        -0.86756
   H        0.27986         6.73838         1.46332
   H       -1.95281         6.07243         2.74383
   H       -3.51328         6.02849         1.77153
*
