# ORCA input file
# SCF done       -198.643603613435          0.000627043910
! CAM-B3LYP def2-SVP def2/J RIJCOSX Grid4 TightSCF
%maxcore 5000
%tddft
    Mode sTDDFT
    Ethresh 5.0
    maxcore 5000
end

%pal
  nprocs 6
  end
* xyz 0 1
   C       -9.04262        -3.44682         9.02549
   C       -8.71453        -4.25922         7.95892
   C       -8.22213        -5.57192         8.08117
   N       -7.83800        -6.65569         8.08599
   C       -8.83676        -3.95155         6.59144
   N       -8.90156        -3.83422         5.44791
   C       -8.90053        -3.81964        10.43238
   C       -9.34369        -2.73891        11.23350
   C       -9.32784        -2.77988        12.60453
   C       -8.85243        -3.94542        13.21840
   C       -8.41594        -5.01994        12.41091
   C       -8.43175        -4.97776        11.02078
   S       -7.86768        -6.36121        13.37168
   C       -8.22611        -5.46887        14.82573
   C       -8.73168        -4.23236        14.60590
  Br       -7.89832        -6.25380        16.49856
   C       -9.79377        -1.63562        10.35306
   O      -10.23086        -0.55941        10.71113
   C       -9.59089        -2.12265         8.97932
   C       -9.91732        -1.42237         7.83216
   C      -10.51957        -0.17636         7.75837
   C      -10.87112         0.36499         6.52846
   C      -11.49647         1.59261         6.23645
   C      -11.71851         1.80757         4.89873
   C      -11.27826         0.75427         4.08352
   S      -10.57208        -0.51445         5.05323
   C      -11.31290         0.56053         2.70479
   C      -11.78305         1.34745         1.64068
   C      -11.61353         0.76240         0.41160
   C      -11.00455        -0.51113         0.44462
   S      -10.65761        -0.93355         2.10423
   C      -10.72082        -1.33446        -0.63229
   C      -10.12301        -2.59286        -0.57313
   C       -9.64271        -3.30195         0.53856
   C       -9.14294        -4.53389         0.21298
   C       -9.21014        -4.82926        -1.16501
   S       -9.90442        -3.53442        -2.05708
   C       -8.70092        -6.11855        -1.37107
   C       -8.30809        -6.65508        -0.12671
   C       -8.53798        -5.67216         0.98897
   C       -7.22377        -5.25372         1.65628
   C       -9.50676        -6.22610         2.03655
   C       -7.83852        -7.94013        -0.20600
   C       -7.85189        -8.44433        -1.51267
   S       -8.44277        -7.23258        -2.65418
   C       -7.50857        -9.71864        -1.96659
   C       -7.26025       -10.82826        -1.18319
   C       -6.93800       -12.12296        -1.65166
   C       -6.84355       -13.07344        -0.67507
   C       -7.09581       -12.57785         0.62026
   S       -7.40790       -10.86571         0.56235
   C       -7.19283       -13.25874         1.82289
   C       -7.08030       -14.63780         2.08259
   C       -7.40246       -14.97686         3.36401
   C       -7.82145       -13.89044         4.17076
   S       -7.65731       -12.40349         3.27961
   C       -8.26102       -14.00565         5.47887
   C       -8.82828       -13.07450         6.34483
   C       -9.41997       -11.83333         6.18774
   C       -9.94360       -11.09325         5.08363
   C      -10.34700       -11.59854         3.86084
   C      -10.73223       -10.80393         2.76794
   N      -10.99403       -10.19912         1.82577
   C      -10.50566       -12.97428         3.61897
   N      -10.68569       -14.08870         3.40432
   C      -10.21546        -9.72912         5.54087
   C      -10.05176        -9.68394         6.94699
   C       -9.58153       -11.00496         7.41316
   O       -9.37034       -11.35394         8.55363
   C      -10.35532        -8.57242         7.69205
   C      -10.84181        -7.44752         7.01575
   C      -10.96317        -7.48811         5.60907
   C      -10.65852        -8.61635         4.85473
   S      -11.59426        -5.99578         4.97972
   C      -11.71245        -5.35853         6.59476
   C      -11.28389        -6.20800         7.55747
  Br      -12.41674        -3.63854         6.85787
   H       -9.67018        -1.94012        13.18872
   H       -8.08377        -5.82273        10.44997
   H       -9.00784        -3.54904        15.38811
   H       -9.70232        -1.90604         6.88637
   H      -10.74165         0.37152         8.66154
   H      -11.76766         2.28452         7.01395
   H      -12.18510         2.68915         4.49579
   H      -12.22970         2.31347         1.79449
   H      -11.91263         1.21745        -0.51649
   H      -11.00213        -0.96732        -1.61068
   H       -9.65694        -2.92959         1.54281
   H       -6.54013        -4.82907         0.92428
   H       -6.75168        -6.11754         2.11693
   H       -7.42271        -4.51295         2.42613
   H      -10.44727        -6.51667         1.57442
   H       -9.70080        -5.47099         2.79354
   H       -9.06905        -7.09892         2.51420
   H       -7.47863        -8.49619         0.63713
   H       -7.48038        -9.86954        -3.03796
   H       -6.79828       -12.31882        -2.70032
   H       -6.62346       -14.10980        -0.85665
   H       -6.79361       -15.34022         1.32109
   H       -7.40488       -15.98311         3.74278
   H       -8.09475       -14.98677         5.90905
   H       -8.78241       -13.35988         7.39400
   H      -10.23702        -8.57266         8.76374
   H      -10.78630        -8.60433         3.78517
   H      -11.29200        -5.98115         8.60876
*
