# ORCA input file
# SCF done       -174.996956957123          0.000640988641
! CAM-B3LYP def2-SVP def2/J RIJCOSX Grid4 TightSCF
%maxcore 5000
%tddft
    Mode sTDDFT
    Ethresh 5.0
    maxcore 5000
end

%pal
  nprocs 6
  end
* xyz 0 1
   C        1.63466         7.42139         2.52316
   C        1.85632         7.23775         3.85640
   C        2.70317         8.05318         4.63518
   N        3.36909         8.67811         5.33138
   C        1.29106         6.21149         4.64715
   N        0.88801         5.42529         5.37872
   C        2.21576         8.46011         1.68713
   C        1.95592         8.15345         0.32769
   C        2.33944         8.97813        -0.70090
   C        2.97303        10.17982        -0.36945
   C        3.23439        10.47695         0.99188
   C        2.88419         9.62214         2.02802
   S        3.96717        12.03729         1.18658
   C        3.88903        12.27751        -0.53773
   C        3.36893        11.23678        -1.23131
  Br        4.43134        13.91088        -1.27481
   C        1.23744         6.86350         0.24566
   O        1.13181         6.15783        -0.72396
   C        0.80320         6.58846         1.65587
   C       -0.23249         5.82786         2.04995
   C       -1.14081         5.13065         1.14669
   N       -1.68073         4.00495         1.61442
   C       -2.47767         3.34319         0.79435
   C       -2.74115         3.76958        -0.49710
   C       -2.15587         4.98130        -0.88977
   N       -1.38392         5.65789        -0.04216
   C       -2.28777         5.57730        -2.20648
   C       -2.89347         5.02050        -3.26191
   C       -2.90513         5.63034        -4.58139
   N       -3.50443         4.92504        -5.54615
   C       -3.49212         5.43768        -6.76329
   C       -2.88932         6.64982        -7.05210
   C       -2.30259         7.33348        -5.97522
   N       -2.32261         6.80953        -4.74798
   C       -1.66762         8.61570        -6.15651
   C       -1.17210         9.33632        -5.12145
   C       -0.57219        10.60520        -5.25458
   C       -0.15754        11.36705        -4.19488
   C        0.41184        12.66758        -4.23906
   C        0.66564        13.20816        -3.01723
   C        0.31681        12.36049        -1.93828
   S       -0.32098        10.84581        -2.52277
   C        0.43823        12.61122        -0.58491
   C        0.90573        13.77884         0.05564
   C        0.94345        13.67843         1.41505
   C        0.51932        12.42443         1.91332
   S        0.01961        11.38803         0.59640
   C        0.55334        11.99547         3.22361
   C        0.19725        10.70113         3.59539
   C        0.32092        10.08249         4.81648
   C        1.00951        10.44237         6.02844
   C        2.11314        11.25568         6.14037
   C        2.74218        11.56861         7.36137
   N        3.26389        11.89478         8.33050
   C        2.82105        11.76532         5.03703
   N        3.45973        12.14507         4.15994
   C        0.49506         9.58092         7.09104
   C       -0.32694         8.58255         6.50776
   C       -0.43032         8.83112         5.06031
   O       -1.01511         8.16637         4.22688
   C       -0.89093         7.56631         7.23917
   C       -0.65124         7.54740         8.61685
   C        0.15007         8.56112         9.19358
   C        0.73614         9.57936         8.45018
   S        0.30454         8.35271        10.91068
   C       -0.69283         6.92400        10.83124
   C       -1.12049         6.61702         9.58420
  Br       -1.07843         5.97903        12.40334
   H        2.13023         8.71980        -1.72692
   H        3.10817         9.89213         3.04621
   H        3.25212        11.22060        -2.29979
   H       -0.46199         5.71062         3.10002
   H       -2.91053         2.43404         1.19302
   H       -3.37300         3.19983        -1.15678
   H       -1.79022         6.52976        -2.31900
   H       -3.39000         4.06239        -3.21656
   H       -3.98265         4.84900        -7.52860
   H       -2.87604         7.05576        -8.05058
   H       -1.61581         8.99515        -7.16821
   H       -1.26082         8.91715        -4.12767
   H       -0.45113        11.01741        -6.24814
   H        0.60657        13.16052        -5.17502
   H        1.09557        14.18074        -2.85955
   H        1.20526        14.65194        -0.49578
   H        1.28836        14.45376         2.07531
   H        0.88179        12.70662         3.96620
   H       -0.29834        10.09562         2.83958
   H       -1.48891         6.80536         6.76362
   H        1.34565        10.32507         8.93300
   H       -1.73909         5.76980         9.35109
*
