# ORCA input file
# SCF done       -196.597274507906          0.000895221984
! CAM-B3LYP def2-SVP def2/J RIJCOSX Grid4 TightSCF
%maxcore 5000
%tddft
    Mode sTDDFT
    Ethresh 5.0
    maxcore 5000
end

%pal
  nprocs 6
  end
* xyz 0 1
   C        1.37165        -8.41205         3.32793
   C        2.53724        -9.07651         3.06624
   F        3.30208        -9.51530         4.07344
   C        2.94828        -9.30759         1.73804
   F        4.09466        -9.96072         1.51142
   C        2.18816        -8.86972         0.68925
   C        0.98362        -8.18049         0.92646
   C        0.56551        -7.94866         2.26909
   C       -0.64284        -7.26309         2.53187
   C       -1.40704        -6.82319         1.48360
   C       -0.97698        -7.05176         0.14547
   C        0.18371        -7.70986        -0.13949
   C       -1.94956        -6.45452        -0.78320
   O       -1.84301        -6.33978        -1.99271
   C       -3.01387        -5.88897         0.05312
   C       -2.68330        -6.11792         1.44643
   C       -3.46878        -5.81781         2.52991
   C       -4.75685        -5.25197         2.44549
   N       -5.81998        -4.81681         2.42075
   C       -3.09959        -6.06955         3.86791
   N       -2.84778        -6.23575         4.97496
   C       -4.03434        -5.08486        -0.38491
   N       -4.58472        -4.96597        -1.60714
   C       -4.67827        -5.78653        -2.69877
   S       -3.94319        -7.33687        -2.85754
   C       -4.65371        -7.49819        -4.42296
   N       -4.40063        -8.68436        -5.12457
   O       -4.87818        -8.80287        -6.23558
   O       -3.72214        -9.51871        -4.55120
   C       -5.38495        -6.40534        -4.81792
   C       -5.45067        -5.42689        -3.81664
   C       -6.23370        -4.21631        -3.94026
   C       -7.00307        -3.68342        -2.96709
   C       -7.71902        -2.45838        -3.08961
   S       -7.50100        -1.40295        -4.45356
   C       -8.55399        -0.19379        -3.76666
   C       -9.10056        -0.64142        -2.55895
   C       -8.61767        -1.91426        -2.17976
   O       -9.01639        -2.52495        -1.03349
   O      -10.03523         0.11144        -1.94909
   C      -10.44659        -0.19705        -0.63160
   C       -8.70095         1.02214        -4.45502
   C       -9.17649         2.23231        -4.01309
   C       -9.21474         3.40358        -4.81688
   C       -9.61152         4.52676        -4.16038
   C       -9.90595         4.30452        -2.79554
   S       -9.69165         2.62212        -2.38566
   C      -10.30141         5.23409        -1.84962
   C      -10.47635         6.62496        -2.01013
   C      -10.83692         7.27303        -0.86612
   C      -10.96089         6.42786         0.26056
   S      -10.65230         4.77282        -0.20056
   C      -11.36321         6.73499         1.54756
   C      -11.44181         8.00270         2.12128
   C      -10.69500         9.12600         1.80744
   C      -10.91784        10.44132         2.35124
   C      -12.08168        10.89511         2.92648
   C      -12.25536        12.19741         3.43208
   N      -12.44912        13.24433         3.86390
   C      -13.26208        10.13439         3.04262
   N      -14.26651         9.58536         3.14242
   C       -9.72412        11.24323         2.10011
   C       -8.80244        10.45216         1.37330
   C       -9.38143         9.11056         1.13916
   O       -8.82714         8.18719         0.57180
   C       -7.57224        10.92002         0.98399
   C       -7.23607        12.23490         1.32714
   C       -8.16297        13.01632         2.05429
   C       -9.40911        12.54150         2.44886
   S       -7.54193        14.60663         2.38029
   C       -6.06643        14.20539         1.54259
   C       -6.03755        12.94670         1.04509
  Br       -4.70160        15.48573         1.40543
   H        1.07085        -8.24499         4.35043
   H        2.51666        -9.05481        -0.32142
   H       -0.93102        -7.10004         3.55786
   H        0.48539        -7.87377        -1.16262
   H       -4.47985        -4.40693         0.33401
   H       -5.12148        -4.11386        -1.75031
   H       -5.87403        -6.33891        -5.77246
   H       -6.22848        -3.74199        -4.91230
   H       -7.12929        -4.21677        -2.02925
   H       -8.64261        -3.41114        -0.96986
   H      -11.09181         0.62881        -0.33718
   H       -9.59516        -0.25701         0.04841
   H      -11.00371        -1.13485        -0.59993
   H       -8.31515         1.01665        -5.46782
   H       -8.94322         3.37191        -5.85747
   H       -9.70340         5.49545        -4.61703
   H      -10.33318         7.11092        -2.95852
   H      -11.05591         8.32341        -0.80938
   H      -11.68493         5.90433         2.16295
   H      -12.10570         8.08439         2.97442
   H       -6.88977        10.29369         0.43106
   H      -10.07943        13.17278         3.00794
   H       -5.20605        12.53438         0.50316
*
