# ORCA input file
# SCF done       -149.126949205330          0.000728383404
! CAM-B3LYP def2-SVP def2/J RIJCOSX Grid4 TightSCF
%maxcore 5000
%tddft
    Mode sTDDFT
    Ethresh 5.0
    maxcore 5000
end

%pal
  nprocs 6
  end
* xyz 0 1
   C       10.49797        -6.37986         8.74735
   C       10.72885        -6.38207         7.42681
   C       11.99451        -6.35182         6.75400
   C       11.91180        -6.36975         5.40390
   C       10.58541        -6.41370         4.89791
   S        9.43316        -6.42951         6.22032
   C       10.19448        -6.45118         3.57914
   C       11.00552        -6.44635         2.42170
   C       10.30609        -6.51322         1.25562
   C        8.89910        -6.55993         1.40715
   S        8.50377        -6.54056         3.11842
   C        8.00439        -6.67436         0.36955
   C        6.60770        -6.67773         0.36950
   S        5.80076        -7.23763        -1.10872
   C        5.62477        -6.32285         1.28761
   N        5.54671        -5.68944         2.50858
   C        4.14221        -5.69820         2.89151
   O        3.39976        -6.13918         1.76636
   C        4.31480        -6.51355         0.82669
   C        4.18416        -7.01850        -0.45308
   C        3.03754        -7.35709        -1.18347
   C        3.00496        -7.92196        -2.45675
   C        1.66942        -8.13573        -2.82462
   C        0.87310        -7.65393        -1.69846
   C        1.67048        -7.19316        -0.71578
   F       -0.46977        -7.68359        -1.67461
   C        1.18485        -8.72435        -3.99843
   C       -0.13009        -8.98192        -4.37915
   C       -0.13864        -9.64844        -5.62638
   C        1.24997        -9.79453        -6.04685
   C        2.01263        -9.24580        -5.08767
   F        3.35079        -9.17727        -5.10773
   C       -1.28051       -10.07779        -6.27494
   C       -1.39271       -10.80855        -7.45882
   C       -2.59422       -11.21471        -8.05401
   C       -2.43856       -11.96037        -9.20200
   C       -1.10359       -12.16911        -9.55033
   S       -0.04679       -11.39412        -8.40545
   C       -0.57491       -12.89480       -10.62882
   C       -1.24776       -13.59868       -11.62629
   C       -0.40606       -14.22326       -12.52451
   C        0.95064       -14.02909       -12.26231
   S        1.14982       -13.02612       -10.84516
   C        2.04367       -14.53506       -12.97532
   C        3.35103       -14.29105       -12.64222
   C        4.46910       -14.78537       -13.31512
   C        5.80865       -14.54203       -12.98549
   C        6.71306       -15.15765       -13.81309
   C        6.11714       -15.91593       -14.83446
   S        4.37278       -15.82476       -14.71729
   C        6.75019       -16.65517       -15.82267
   C        8.14458       -16.80636       -16.01494
   C        8.48221       -17.59501       -17.06611
   C        7.36519       -18.12660       -17.78451
   S        5.86686       -17.55577       -17.03245
   C        7.38096       -18.93199       -18.85915
   H       11.31525        -6.35200         9.44601
   H        9.50148        -6.40620         9.14807
   H       12.91212        -6.31895         7.31400
   H       12.76128        -6.35361         4.74418
   H       12.07757        -6.39455         2.48146
   H       10.75674        -6.52315         0.27876
   H        8.45147        -6.82460        -0.60588
   H        6.24010        -5.84198         3.22361
   H        3.81200        -4.68301         3.15670
   H        3.94114        -6.37139         3.74340
   H        3.87139        -8.15802        -3.04280
   H        1.39115        -6.77933         0.23242
   H       -1.00649        -8.73415        -3.81270
   H        1.59782       -10.24464        -6.95447
   H       -2.22371        -9.83535        -5.79864
   H       -3.54953       -10.95759        -7.63089
   H       -3.25560       -12.35278        -9.78027
   H       -2.32084       -13.64416       -11.67626
   H       -0.74564       -14.81326       -13.35755
   H        1.82476       -15.15646       -13.83433
   H        3.55386       -13.66434       -11.78204
   H        6.07967       -13.92106       -12.14980
   H        7.77939       -15.07733       -13.70460
   H        8.85638       -16.32650       -15.36707
   H        9.48957       -17.82428       -17.36433
   H        8.31325       -19.25677       -19.28600
   H        6.47441       -19.27417       -19.32309
*
