# ORCA input file
# SCF done       -157.026679331504          0.000614637263
! CAM-B3LYP def2-SVP def2/J RIJCOSX Grid4 TightSCF
%maxcore 5000
%tddft
    Mode sTDDFT
    Ethresh 5.0
    maxcore 5000
end

%pal
  nprocs 6
  end
* xyz 0 1
   C       -6.87290       -22.60721        -4.30036
   C       -7.65771       -21.99555        -5.19649
   C       -9.00052       -22.33964        -5.57068
   C       -9.54257       -21.53826        -6.51232
   C       -8.68168       -20.49682        -6.96338
   S       -7.14180       -20.57978        -6.12654
   C       -8.95087       -19.54471        -7.91280
   C      -10.13752       -19.36800        -8.67068
   C      -10.09333       -18.33802        -9.55237
   C       -8.86318       -17.62625        -9.55480
   S       -7.76484       -18.32998        -8.36174
   C       -8.52046       -16.56903       -10.33956
   N       -7.30651       -15.96215       -10.26129
   C       -6.83888       -14.96807       -11.04336
   S       -7.75161       -14.32875       -12.38066
   C       -6.41384       -13.27899       -12.77522
   N       -6.52443       -12.36076       -13.79401
   O       -5.56698       -11.59211       -13.95255
   O       -7.54510       -12.33508       -14.46454
   C       -5.33927       -13.45408       -11.93520
   C       -5.56758       -14.39095       -10.92663
   C       -4.57852       -14.57753        -9.89368
   C       -4.77747       -14.81542        -8.58859
   C       -3.69180       -14.64306        -7.64679
   C       -2.40948       -14.97381        -7.83341
   C       -1.91861       -15.88591        -8.91220
   C       -1.34070       -14.40623        -6.92770
   N       -0.18127       -13.94418        -7.66505
   C       -0.27952       -13.18987        -8.80637
   C       -1.31826       -12.47543        -9.25906
   C       -1.19288       -11.78472       -10.56254
   S       -1.84134       -12.85230       -11.95708
   C       -2.10040       -11.42838       -13.08104
   C       -1.88850       -10.14214       -12.27792
   C       -1.97391       -10.50007       -10.77177
   C       -2.95435        -9.04060       -12.52769
   O       -2.60747        -7.87380       -12.53769
   N       -4.23640        -9.41537       -12.61040
   N       -0.63722        -9.48490       -12.59579
   C        0.57517        -9.94202       -12.96564
   C        1.05244       -11.21263       -12.97323
   C        2.37153       -11.62411       -13.29054
   N        3.28984       -11.01009       -14.11497
   C        3.10181        -9.82842       -14.90998
   C        4.47229       -11.76961       -14.24349
   O        5.39726       -11.42908       -14.95721
   C        4.26447       -12.91341       -13.39205
   C        2.95960       -12.79461       -12.82661
   C        2.75542       -13.89010       -11.92760
   O        1.84268       -14.19654       -11.17488
   N        3.94433       -14.64078       -12.03246
   C        4.12760       -15.85625       -11.29096
   C        4.84940       -14.06517       -12.89816
   C        6.13814       -14.63391       -13.16818
   C        7.01365       -14.08459       -14.01181
   H       -7.22575       -23.46609        -3.75739
   H       -5.87502       -22.26557        -4.09557
   H       -9.49732       -23.17721        -5.11425
   H      -10.53579       -21.65287        -6.90855
   H      -10.98670       -20.01389        -8.53954
   H      -10.89725       -18.05985       -10.20995
   H       -9.21449       -16.17045       -11.06421
   H       -6.65090       -16.33583        -9.58089
   H       -4.41021       -12.92363       -12.03754
   H       -3.57901       -14.32572       -10.21884
   H       -5.77036       -14.94761        -8.17533
   H       -3.96128       -14.09200        -6.75217
   H       -2.73635       -16.45891        -9.34028
   H       -1.18200       -16.57444        -8.49817
   H       -1.43175       -15.32748        -9.71219
   H       -0.99787       -15.15967        -6.21179
   H       -1.75475       -13.56633        -6.35850
   H        0.59223       -14.58889        -7.68403
   H        0.63545       -13.18505        -9.38508
   H       -2.27848       -12.45795        -8.76877
   H       -0.13621       -11.62663       -10.77607
   H       -3.10250       -11.51375       -13.49751
   H       -1.38858       -11.49179       -13.90332
   H       -3.01966       -10.65130       -10.49366
   H       -1.56357        -9.68916       -10.16894
   H       -4.54131       -10.34256       -12.87650
   H       -4.89528        -8.67505       -12.80135
   H       -0.78137        -8.47795       -12.62326
   H        1.24377        -9.13382       -13.22830
   H        0.45478       -12.04340       -12.63475
   H        3.22177        -8.91955       -14.31417
   H        2.11816        -9.83199       -15.38171
   H        3.87799        -9.83812       -15.67737
   H        3.20955       -16.01323       -10.72291
   H        4.96906       -15.77660       -10.59828
   H        4.28564       -16.70711       -11.95768
   H        6.37866       -15.55296       -12.65005
   H        6.78909       -13.17094       -14.53539
   H        7.97294       -14.53684       -14.19553
*
