# ORCA input file
# SCF done       -148.167221706262          0.000551421133
! CAM-B3LYP def2-SVP def2/J RIJCOSX Grid4 TightSCF
%maxcore 5000
%tddft
    Mode sTDDFT
    Ethresh 5.0
    maxcore 5000
end

%pal
  nprocs 6
  end
* xyz 0 1
   C       -3.06450        -4.32092         1.55706
   C       -2.01401        -4.78658         2.24457
   C       -1.77522        -4.69091         3.65734
   C       -0.62184        -5.25829         4.06947
   C        0.14720        -5.84896         3.02532
   S       -0.66724        -5.64980         1.48503
   C        1.35153        -6.49444         3.14288
   C        2.11070        -6.72753         4.31919
   C        3.26788        -7.40444         4.11531
   C        3.50566        -7.75489         2.75752
   S        2.17644        -7.17430         1.74919
   C        4.57491        -8.43606         2.26545
   N        4.72637        -8.73178         0.94506
   C        5.73956        -9.42825         0.39301
   S        7.02331       -10.07198         1.36893
   C        7.74678       -10.75372        -0.05914
   N        8.92965       -11.46421         0.09428
   O        9.43957       -11.94933        -0.90525
   O        9.37822       -11.55420         1.23001
   C        7.03592       -10.49446        -1.20252
   C        5.87819        -9.73210        -0.97544
   C        4.94998        -9.29780        -1.97850
   C        4.98037        -9.65612        -3.27809
   C        4.02920        -9.16585        -4.21747
   N        4.04329        -9.58374        -5.55251
   C        3.01975        -8.92407        -6.13062
   N        2.33925        -8.71116        -7.28663
   C        1.34044        -7.81132        -6.92432
   N        1.37095        -7.44333        -5.67134
   C        2.42186        -8.13228        -5.13833
   N        3.06431        -8.30089        -3.96389
   N        0.44306        -7.30758        -7.83082
   C        0.14377        -7.82844        -9.05580
   S       -0.18912        -6.75556       -10.38042
   C       -0.35096        -8.12917       -11.43340
   N       -0.68211        -7.88921       -12.76818
   O       -0.78410        -8.85078       -13.50983
   O       -0.83880        -6.72325       -13.09555
   C       -0.15865        -9.32657       -10.79816
   C        0.10708        -9.18162        -9.42176
   C        0.20352       -10.25511        -8.47148
   C        0.43619       -11.55651        -8.77149
   C        0.48739       -12.56802        -7.78868
   C        0.74600       -13.88677        -8.03848
   C        0.79691       -14.93514        -7.07900
   C        1.07313       -16.15759        -7.59796
   C        1.26316       -16.16040        -9.00402
   S        1.07304       -14.53552        -9.64014
   C        1.55534       -17.23195        -9.81035
   C        1.72972       -18.58875        -9.40987
   C        2.01243       -19.43550       -10.42220
   C        2.08652       -18.81325       -11.71418
   S        1.76908       -17.07909       -11.54227
   C        2.34827       -19.39664       -12.89061
   H       -3.86288        -3.80307         2.05847
   H       -3.14561        -4.44875         0.49330
   H       -2.48329        -4.19813         4.29971
   H       -0.28593        -5.27766         5.09109
   H        1.77325        -6.38552         5.28081
   H        3.96697        -7.67002         4.88784
   H        5.35772        -8.77583         2.92690
   H        3.99873        -8.40062         0.31927
   H        7.36688       -10.84586        -2.16182
   H        4.15686        -8.62343        -1.68903
   H        5.72690       -10.33637        -3.66091
   H        4.69142       -10.23429        -5.96372
   H        2.45750        -9.14453        -8.18675
   H        0.06016        -6.40746        -7.57764
   H       -0.25361       -10.26775       -11.30766
   H        0.05093        -9.98348        -7.43492
   H        0.60865       -11.85877        -9.79575
   H        0.30568       -12.28249        -6.76038
   H        0.62235       -14.74008        -6.03544
   H        1.14677       -17.05874        -7.01613
   H        1.63783       -18.88414        -8.37979
   H        2.17644       -20.49287       -10.31357
   H        2.53489       -20.45442       -12.94909
   H        2.37845       -18.83545       -13.80641
*
