# ORCA input file
# SCF done       -178.566283044577          0.000408046927
! CAM-B3LYP def2-SVP def2/J RIJCOSX Grid4 TightSCF
%maxcore 5000
%tddft
    Mode sTDDFT
    Ethresh 5.0
    maxcore 5000
end

%pal
  nprocs 6
  end
* xyz 0 1
   C       -0.67449         1.07334         8.33093
   C       -1.33923         0.93403         9.55137
   N       -1.88152         0.82272        10.55578
   C       -1.21779         0.98182         7.06555
   F       -2.50451         0.73593         6.83657
   C       -0.27344         1.17677         6.04454
   F       -0.57224         1.13571         4.74535
   C        1.00310         1.42013         6.51780
   S        1.02897         1.40407         8.25632
   C        2.14193         1.66618         5.77113
   C        3.12417         1.89548         5.09410
   C        4.24871         2.19255         4.34821
   C        4.34392         2.27473         2.97041
   C        5.62538         2.64723         2.56754
   C        6.50653         2.84368         3.64927
   S        5.76706         2.56622         5.16059
   C        7.76349         3.26134         3.14766
   C        7.67460         3.33387         1.74119
   C        6.33572         2.93530         1.33224
   C        5.85331         2.85447         0.05960
   C        4.53041         2.45058        -0.22087
   N        3.45640         2.12346        -0.45209
   C        6.65062         3.16791        -1.06204
   N        7.29962         3.42316        -1.97187
   C        8.84741         3.78729         1.15177
   C        9.82323         4.05798         2.10339
   S        9.29290         3.72993         3.74763
   C       11.10771         4.59208         1.91014
   C       12.02490         4.85375         2.93372
   C       13.22781         5.47838         2.46627
   N       14.20687         5.81245         3.30533
   C       14.01867         5.53496         4.57888
   C       15.11073         5.89907         5.51476
   O       16.12901         6.44769         5.14778
   C       14.86703         5.54563         6.92334
   C       13.74447         4.96402         7.35947
   C       12.61656         4.60448         6.48376
   O       11.60019         4.09428         6.90712
   C       12.81641         4.91119         5.04605
   N       11.84013         4.58417         4.22494
   C       13.23252         5.69618         1.08427
   S       11.75722         5.10206         0.37891
   C       14.25117         6.35963         0.38097
   C       14.32209         6.63696        -0.97885
   C       15.45380         7.38000        -1.28766
   C       16.24440         7.66701        -0.15452
   S       15.61007         7.00864         1.28888
   C       17.33672         8.46791        -0.56890
   C       17.24286         8.68475        -1.95795
   C       16.06354         7.99651        -2.45667
   C       15.61706         7.94148        -3.74374
   C       14.44688         7.23643        -4.09807
   N       13.49601         6.66344        -4.38369
   C       16.29348         8.58148        -4.80424
   N       16.84015         9.10151        -5.66720
   C       18.25879         9.50180        -2.45109
   C       19.11719         9.90798        -1.44488
   S       18.67360         9.26091         0.13279
   C       20.20340        10.75359        -1.56453
   C       21.14297        11.51915        -1.64759
   C       22.19607        12.40856        -1.76962
   C       22.62770        13.04135        -2.92122
   C       23.71540        13.90368        -2.70817
   C       24.12823        13.94010        -1.39173
   S       23.15804        12.89127        -0.40408
   C       25.17173        14.69496        -0.85129
   N       26.02729        15.31361        -0.40320
   F       24.28786        14.61427        -3.67557
   F       22.06050        12.84935        -4.11296
   H        3.51188         2.07882         2.31873
   H        9.00802         3.93181         0.09838
   H       15.67091         5.79584         7.60243
   H       13.60469         4.72528         8.40516
   H       13.57210         6.31168        -1.67740
   H       18.38168         9.80377        -3.47533
*
