# ORCA input file
# SCF done       -131.626740614170          0.000980335326
! CAM-B3LYP def2-SVP def2/J RIJCOSX Grid4 TightSCF
%maxcore 5000
%tddft
    Mode sTDDFT
    Ethresh 5.0
    maxcore 5000
end

%pal
  nprocs 6
  end
* xyz 0 1
   C        1.48897         1.91860        -0.98289
   C        2.40995         1.97961        -1.94408
   C        3.16726         0.86257        -2.43406
   C        3.12614        -0.46124        -2.04435
   C        4.01952        -1.25064        -2.77073
   C        4.74952        -0.51665        -3.72453
   S        4.33159         1.13702        -3.71798
   C        5.61613        -1.39580        -4.41783
   C        5.43080        -2.69423        -3.89695
   C        4.42826        -2.64313        -2.84421
   C        3.97258        -3.68249        -2.08686
   C        4.45005        -5.00024        -2.24834
   N        4.82962        -6.07551        -2.37010
   C        2.99243        -3.50796        -1.08770
   N        2.19522        -3.36869        -0.27529
   C        6.22804        -3.64245        -4.52008
   C        7.02474        -3.08108        -5.51219
   S        6.78291        -1.34679        -5.66708
   C        7.93833        -3.76280        -6.35266
   C        8.70733        -3.06822        -7.31604
   C        9.63868        -3.71663        -8.20885
   N       10.28499        -2.97761        -9.12153
   C       10.08620        -1.68366        -9.17866
   C        9.19551        -1.03460        -8.26390
   N        8.53848        -1.74301        -7.37853
   C        9.00643         0.36808        -8.30577
   N        8.86768         1.50368        -8.36140
   C       10.74632        -0.91707       -10.17282
   N       11.24195        -0.25251       -10.96271
   C        9.85211        -5.11695        -8.15405
   C        9.07424        -5.80907        -7.19742
   C        8.14133        -5.16072        -6.31058
   N        7.54049        -6.03924        -5.50768
   S        8.08030        -7.51408        -5.82371
   N        9.10746        -7.12674        -6.99773
   C       10.75779        -5.82417        -8.98824
   C       11.67999        -5.31669        -9.89615
   C       12.38621        -6.32250       -10.54099
   C       11.99703        -7.61512       -10.13232
   S       10.78479        -7.58461        -8.93227
   C       12.75753        -8.55898       -10.86412
   C       13.62525        -7.87133       -11.73168
   C       13.43185        -6.44264       -11.54614
   C       14.10545        -5.42891       -12.16139
   C       15.10682        -5.67302       -13.12436
   N       15.92152        -5.87522       -13.90580
   C       13.86172        -4.07202       -11.85728
   N       13.68213        -2.96929       -11.60051
   C       14.41340        -8.72763       -12.50373
   C       14.15460       -10.05631       -12.23568
   S       12.91844       -10.25166       -11.00505
   C       14.74045       -11.23380       -12.81171
   C       15.68429       -11.23841       -13.75228
   H        0.95765         2.79825        -0.66645
   H        1.23680         0.99862        -0.48517
   H        2.63194         2.92638        -2.41899
   H        2.47711        -0.82899        -1.27157
   H        6.25420        -4.69282        -4.29545
   H       11.80458        -4.26251       -10.05850
   H       15.13820        -8.40227       -13.22647
   H       14.35884       -12.17021       -12.42584
   H       16.09180       -10.33118       -14.16258
   H       16.07809       -12.16121       -14.13906
*
