# ORCA input file
# SCF done       -172.034791294272          0.000989374564
! CAM-B3LYP def2-SVP def2/J RIJCOSX Grid4 TightSCF
%maxcore 5000
%tddft
    Mode sTDDFT
    Ethresh 5.0
    maxcore 5000
end

%pal
  nprocs 6
  end
* xyz 0 1
   C        1.04915        -2.33871        -1.75999
   O        0.73322        -3.47281        -1.44314
   C        1.96565        -1.94203        -2.84085
   C        2.18391        -0.55206        -2.78070
   C        3.01422         0.05116        -3.70958
   C        3.60952        -0.74124        -4.68607
   C        3.38521        -2.11903        -4.73803
   C        2.55820        -2.73108        -3.80473
  Br        4.20131        -3.17094        -6.07774
  Br        4.73932         0.08268        -5.95604
   C        1.41405         0.00362        -1.66765
   C        1.38095         1.31979        -1.28926
   C        2.12404         2.34216        -1.91670
   N        2.71407         3.20652        -2.38650
   C        0.61014         1.81755        -0.21695
   N        0.00438         2.27860         0.64145
   C        0.67509        -1.08645        -1.07429
   C       -0.16556        -1.09592         0.01120
   C       -0.96417        -2.22258         0.27055
   C       -1.45589        -2.73339         1.44653
   C       -2.13020        -3.95727         1.20472
   C       -2.07559        -4.29315        -0.13535
   C       -1.50237        -3.09780        -0.83710
   O       -1.77074        -2.72534        -1.95216
   C       -2.64649        -5.44830        -0.70465
   N       -2.36370        -6.00210        -1.92226
   C       -1.32468        -5.63227        -2.85955
   C       -1.89654        -4.93466        -4.08910
   C       -3.14846        -7.14220        -2.17308
   O       -3.04770        -7.82302        -3.17126
   C       -3.99196        -7.27112        -0.99760
   C       -3.63526        -6.25587        -0.10307
   C       -4.47702        -6.37499         1.07723
   O       -4.50310        -5.75534         2.11827
   N       -5.31340        -7.46516         0.79366
   C       -6.36202        -7.86446         1.70475
   C       -7.71743        -7.30250         1.28497
   C       -5.05501        -8.01253        -0.43952
   C       -5.77766        -9.07615        -0.99085
   C       -5.51357        -9.59586        -2.23758
   C       -6.31291       -10.56335        -2.85088
   C       -6.17213       -11.08916        -4.12030
   C       -7.26695       -11.93044        -4.42827
   C       -8.17241       -11.95616        -3.38635
   C       -7.55754       -11.18390        -2.26497
   O       -7.90973       -11.17459        -1.10867
   C       -9.40413       -12.63658        -3.34905
   C      -10.46177       -12.44532        -2.50375
   C      -11.48464       -13.51529        -2.37158
   O      -11.62495       -14.48210        -3.08264
   C      -12.25319       -13.16268        -1.15622
   C      -11.80849       -11.92082        -0.66565
   C      -10.79169       -11.39011        -1.57169
   C      -10.42035       -10.07384        -1.64613
   C       -9.62907        -9.53666        -2.68053
   N       -9.00086        -9.04101        -3.50421
   C      -10.79710        -9.08960        -0.71052
   N      -11.03395        -8.25595         0.04213
   C      -12.36276       -11.39746         0.48966
   C      -13.36068       -12.11998         1.13380
   C      -13.80840       -13.34390         0.63163
   C      -13.24977       -13.87618        -0.52386
  Br      -15.17816       -14.29585         1.51964
  Br      -14.11189       -11.41362         2.71769
   H        3.21076         1.11113        -3.70125
   H        2.37884        -3.79452        -3.83601
   H       -0.21749        -0.25151         0.68511
   H       -1.28915        -2.32053         2.42584
   H       -2.59371        -4.55418         1.97075
   H       -0.83757        -6.56307        -3.16883
   H       -0.59750        -4.99898        -2.35155
   H       -2.62988        -5.57499        -4.57269
   H       -1.09521        -4.72872        -4.79306
   H       -2.36412        -3.99560        -3.80830
   H       -6.08401        -7.46294         2.68298
   H       -6.39292        -8.95517         1.76544
   H       -7.68440        -6.21605         1.27353
   H       -8.48214        -7.61755         1.98853
   H       -7.99890        -7.64948         0.29337
   H       -6.59218        -9.49117        -0.41685
   H       -4.67932        -9.20926        -2.81053
   H       -5.36580       -10.86440        -4.79479
   H       -7.40206       -12.42826        -5.37263
   H       -9.52411       -13.46044        -4.04722
   H      -12.03684       -10.45796         0.90619
   H      -13.58681       -14.82229        -0.91810
*
