# ORCA input file
# SCF done       -194.916708916138          0.000868774181
! CAM-B3LYP def2-SVP def2/J RIJCOSX Grid4 TightSCF
%maxcore 5000
%tddft
    Mode sTDDFT
    Ethresh 5.0
    maxcore 5000
end

%pal
  nprocs 6
  end
* xyz 0 1
   C        2.00360         1.10111         0.44894
   C        1.38542         2.27571         0.15489
   S        2.21121         3.12051        -1.10567
   C        3.43525         1.87821        -1.22094
  Cl        4.69089         1.97458        -2.35694
   C        3.19454         0.88573        -0.31876
   C        3.82094        -0.37936         0.07197
   O        4.88984        -0.82450        -0.28241
   C        2.83359        -1.00588         1.00824
   C        1.77572        -0.04756         1.30097
   C        0.75006        -0.19054         2.19034
   C       -0.24197         0.80330         2.32018
   N       -1.05310         1.60941         2.40945
   C        0.58810        -1.29631         3.05037
   N        0.44344        -2.15712         3.79463
   C        2.81377        -2.33625         1.25552
   C        3.85745        -3.22155         0.82977
   C        3.69052        -4.38094         0.12320
   C        4.98070        -4.87201        -0.27514
   C        5.96607        -3.94474         0.31216
   C        5.28771        -2.96528         0.96833
   C        7.35082        -3.99189         0.13477
   N        8.48324        -4.01689        -0.06609
   C        5.26562        -5.93121        -1.09738
   C        6.57033        -6.38847        -1.46633
   C        6.45639        -7.39920        -2.38148
   C        5.03906        -7.64137        -2.60766
   C        4.31877        -6.77658        -1.84613
   C        2.92153        -6.69751        -1.80314
   N        1.77440        -6.66232        -1.77717
   C        7.52113        -8.15469        -2.96739
   S        7.25109        -9.83077        -3.36012
   C        8.89605       -10.04449        -3.76040
   C        9.61827        -8.89205        -3.62858
   C        8.83546        -7.79306        -3.19843
   C        9.36487        -6.37530        -3.18093
   C       10.84544        -6.32580        -3.59609
   C       11.61989        -7.53974        -3.10145
   C       11.10631        -8.78416        -3.81509
   N       11.70416       -10.02292        -3.23771
   O       11.77095       -10.97532        -3.97476
   O       12.03906       -10.00080        -2.08273
   N        8.60149        -5.57934        -4.11838
   C        7.67494        -4.65536        -3.83812
   C        6.96675        -4.00144        -4.80478
   C        5.91542        -3.09554        -4.56254
   C        5.28283        -2.29157        -5.49905
   C        4.24664        -1.57159        -4.87650
   C        4.20934        -2.03769        -3.46811
   C        5.22782        -2.91318        -3.28862
   C        3.22311        -1.73121        -2.53559
   N        2.40900        -1.50267        -1.75436
   C        3.41269        -0.60225        -5.39821
   C        2.47174         0.18075        -4.67729
   C        1.75778         0.96986        -5.56139
   C        2.28567         0.71839        -6.89027
   C        3.27326        -0.21566        -6.80461
   C        4.00528        -0.73750        -7.87601
   N        4.61020        -1.14657        -8.76307
   C        0.74596         1.91980        -5.30064
   C       -0.05744         2.12623        -4.21402
   C       -0.74615         3.45464        -4.13678
   O       -0.78252         4.29196        -5.00747
   C       -1.31588         3.50462        -2.78760
   C       -2.03803         4.38231        -2.03628
   S       -2.44488         3.67589        -0.48935
   C       -1.64488         2.19952        -0.88644
   C       -1.07980         2.25767        -2.12297
   C       -0.36262         1.36527        -3.02022
   C       -0.20167         0.02234        -2.77310
   C       -0.44595        -0.51528        -1.49467
   N       -0.59317        -0.93875        -0.43767
   C        0.15284        -0.93187        -3.74054
   N        0.38831        -1.73725        -4.52466
  Cl       -2.53304         5.94826        -2.44918
   H        0.50330         2.70585         0.58455
   H        1.92925        -2.78951         1.68523
   H        2.75461        -4.82118        -0.16079
   H        5.71755        -2.17016         1.54600
   H        7.47424        -6.03729        -1.01545
   H        4.64817        -8.38085        -3.28191
   H        9.25136       -11.01028        -4.06348
   H        9.25242        -5.93434        -2.18741
   H       11.29223        -5.41253        -3.20522
   H       10.90964        -6.28752        -4.68695
   H       11.48483        -7.66124        -2.02536
   H       12.68463        -7.40943        -3.29841
   H       11.36779        -8.78860        -4.87964
   H        8.70957        -5.83383        -5.09200
   H        7.54157        -4.42190        -2.79309
   H        7.20638        -4.19089        -5.84347
   H        5.56144        -2.19700        -6.53032
   H        5.46480        -3.42379        -2.37560
   H        2.40382         0.21348        -3.60835
   H        1.92258         1.18365        -7.78803
   H        0.60750         2.66636        -6.08015
   H       -1.65232         1.40223        -0.17019
*
