# ORCA input file
# SCF done       -154.568403453123          0.000895259040
! CAM-B3LYP def2-SVP def2/J RIJCOSX Grid4 TightSCF
%maxcore 5000
%tddft
    Mode sTDDFT
    Ethresh 5.0
    maxcore 5000
end

%pal
  nprocs 6
  end
* xyz 0 1
   C        3.11000         2.96252        -1.42157
   C        2.56560         4.16442        -1.75314
   S        2.98974         4.61824        -3.36305
   C        3.92075         3.15650        -3.59865
  Cl        4.71161         2.84206        -5.06330
   C        3.88692         2.38309        -2.47758
   C        4.43800         1.09074        -2.04792
   O        5.13587         0.33415        -2.68128
   C        3.98830         0.94964        -0.62828
   C        3.11781         2.06528        -0.28602
   C        2.37032         2.22127         0.85086
   C        1.56644         3.36447         1.04578
   N        0.91264         4.29139         1.21752
   C        2.26195         1.28505         1.89609
   N        2.08219         0.55473         2.76428
   C        4.46958         0.04268         0.25652
   C        5.28242        -1.10392        -0.03019
   C        6.33653        -1.47516         0.82299
   N        6.98328        -2.60430         0.69393
   C        6.68452        -3.39388        -0.33886
   N        5.76550        -3.08994        -1.25439
   C        5.05824        -1.99789        -1.08894
   C        7.36817        -4.68752        -0.37783
   C        7.55765        -5.30508         0.84132
   C        8.14050        -6.57232         0.91064
   C        8.59468        -7.18113        -0.24523
   C        8.45979        -6.56797        -1.49636
   C        7.80646        -5.30940        -1.57445
   C        7.64600        -4.68133        -2.83924
   C        8.10037        -5.26666        -3.97225
   C        8.76982        -6.52077        -3.94208
   C        8.95965        -7.18134        -2.70563
   C        9.64435        -8.40739        -2.71588
   C       10.11086        -8.95453        -3.88609
   C        9.91431        -8.30095        -5.10343
   C        9.25288        -7.10082        -5.12671
   C        8.24478        -7.24935         2.20362
   N        9.04101        -8.31853         2.28864
   C        9.12414        -8.91559         3.46180
   C        8.41911        -8.47891         4.57281
   C        7.59291        -7.36351         4.38661
   N        7.51949        -6.76243         3.20056
   C        6.77956        -6.83945         5.46446
   C        5.95750        -5.78080         5.31436
   C        5.13732        -5.29917         6.37134
   C        4.38423        -4.17066         6.41150
   C        3.32192        -4.05082         7.46534
   O        3.20743        -4.74884         8.44359
   C        2.46856        -2.95486         7.00028
   C        1.30164        -2.36123         7.38002
   S        0.87604        -1.08139         6.26777
   C        2.28696        -1.34776         5.31328
   C        3.03239        -2.36854         5.81749
   C        4.29122        -3.02589         5.52111
   C        5.26105        -2.50428         4.70789
   C        5.04933        -1.31424         3.98572
   N        4.92525        -0.34680         3.37995
   C        6.58700        -2.97492         4.59694
   N        7.69304        -3.26590         4.50788
  Cl        0.32454        -2.73623         8.71237
   H        1.95131         4.81772        -1.16582
   H        4.26360         0.18438         1.31243
   H        6.66412        -0.82184         1.62061
   H        4.25207        -1.84465        -1.79246
   H        7.24490        -4.81786         1.75079
   H        9.05137        -8.15172        -0.14466
   H        7.14301        -3.72903        -2.87937
   H        7.96952        -4.78233        -4.92936
   H        9.81867        -8.93767        -1.79357
   H       10.63620        -9.89813        -3.86599
   H       10.28560        -8.74079        -6.01720
   H        9.09576        -6.57887        -6.05987
   H        9.78082        -9.77584         3.50805
   H        8.49531        -8.97441         5.52688
   H        6.86956        -7.33512         6.42220
   H        5.90856        -5.31127         4.34317
   H        5.03407        -5.94450         7.23890
   H        2.43927        -0.74021         4.44031
*
