# ORCA input file
# SCF done       -155.460455167247          0.000326981906
! CAM-B3LYP def2-SVP def2/J RIJCOSX Grid4 TightSCF
%maxcore 5000
%tddft
    Mode sTDDFT
    Ethresh 5.0
    maxcore 5000
end

%pal
  nprocs 6
  end
* xyz 0 1
   C        9.16883         4.04866        -3.04062
   C        9.37541         5.34669        -3.39341
   S        9.48102         5.51757        -5.10674
   C        9.24140         3.80485        -5.35866
  Cl        9.21400         3.13604        -6.91419
   C        9.09036         3.16408        -4.16441
   C        8.86553         1.78751        -3.71239
   O        8.75672         0.79581        -4.39381
   C        8.87396         1.87882        -2.21410
   C        8.99606         3.28195        -1.82567
   C        8.90075         3.81311        -0.56930
   C        9.01966         5.20289        -0.35087
   N        9.11833         6.32957        -0.16092
   C        8.65224         3.08319         0.61125
   N        8.43682         2.54482         1.60168
   C        8.97335         0.82709        -1.36662
   C        8.81848        -0.57172        -1.69062
   C        9.66139        -1.50138        -1.07767
   C        9.56605        -2.84654        -1.37779
   N       10.61094        -3.69109        -0.85221
   O       10.91957        -3.53692         0.31041
   O       11.14306        -4.46970        -1.61374
   C        8.55942        -3.34577        -2.22642
   C        7.71702        -2.39596        -2.82354
   C        7.84173        -1.04984        -2.57455
   C        8.30815        -4.74429        -2.45119
   C        8.58478        -5.74831        -1.59013
   C        8.32161        -7.11624        -1.83857
   S        7.52935        -7.70327        -3.27978
   C        7.64608        -9.37871        -2.81120
   C        8.27777        -9.47895        -1.57364
   C        8.64338        -8.20376        -1.04147
   N        9.23916        -8.39479         0.16222
   C        9.25615        -9.75093         0.42036
   C        9.80735       -10.27183         1.60067
   N       10.25585       -10.70316         2.56407
   C        8.67190       -10.44575        -0.61610
   C        7.11786       -10.40450        -3.64655
   C        7.45687       -11.76454        -3.51259
   N        6.91760       -12.70178        -4.25046
   C        5.98908       -12.34235        -5.13774
   N        5.65341       -11.07488        -5.40627
   C        6.21716       -10.13398        -4.69324
   C        5.37495       -13.39948        -5.90547
   C        4.17787       -13.37448        -6.52743
   C        3.87176       -14.39712        -7.58622
   O        4.47364       -15.42075        -7.79060
   C        2.73530       -13.82572        -8.31712
   C        2.00303       -14.13280        -9.42568
   S        0.75959       -12.93325        -9.68897
   C        1.23535       -12.03785        -8.29247
   C        2.29235       -12.62422        -7.66948
   C        3.08963       -12.40663        -6.47829
   C        2.73017       -11.59937        -5.43718
   C        1.60765       -10.74836        -5.52130
   N        0.70815       -10.03915        -5.58306
   C        3.35294       -11.57861        -4.17251
   N        3.76752       -11.55411        -3.10262
  Cl        2.18608       -15.45687       -10.46501
   H        9.47863         6.21271        -2.77016
   H        9.24221         1.02580        -0.33555
   H       10.43950        -1.17153        -0.40408
   H        6.93541        -2.74512        -3.48076
   H        7.15571        -0.35859        -3.03481
   H        7.79462        -4.98699        -3.37237
   H        9.02012        -5.54523        -0.62029
   H        9.63045        -7.68948         0.76393
   H        8.54081       -11.50779        -0.65291
   H        8.20919       -12.08996        -2.80854
   H        5.93734        -9.11542        -4.93564
   H        5.97962       -14.28983        -6.03243
   H        0.70875       -11.13991        -8.03665
*
