# ORCA input file
# SCF done       -189.371004573843          0.000886265362
! CAM-B3LYP def2-SVP def2/J RIJCOSX Grid4 TightSCF
%maxcore 5000
%tddft
    Mode sTDDFT
    Ethresh 5.0
    maxcore 5000
end

%pal
  nprocs 6
  end
* xyz 0 1
   C        0.87498         4.90306         3.52539
   C        1.87569         5.45761         2.77314
   C        2.56628         6.63019         3.14357
   N        3.13936         7.59196         3.39689
   C        2.36712         4.87405         1.58619
   N        2.79942         4.42141         0.62447
   C        0.47637         5.34113         4.85671
   C       -0.17006         4.25347         5.51391
   C       -0.62932         4.36525         6.79481
   C       -0.46604         5.59063         7.48103
   C        0.16521         6.68478         6.82134
   C        0.63212         6.54134         5.49512
   C        0.32307         7.90024         7.51739
   C       -0.12240         8.03268         8.80433
   C       -0.74708         6.95661         9.45268
   C       -0.91362         5.76189         8.80610
   C       -0.24992         3.10140         4.59338
   O       -0.66301         1.99136         4.81905
   C        0.22768         3.63228         3.27697
   C       -0.10652         3.00083         2.12027
   C       -0.18697         3.57540         0.82788
   O       -0.16710         4.91273         0.66272
   C       -0.40933         5.18166        -0.64061
   C       -0.56802         3.99951        -1.34513
   C       -0.43504         2.96033        -0.40931
   C       -0.54666         1.52913        -0.66435
   O       -0.42830         0.66567         0.16632
   C       -0.51132         6.51104        -1.13055
   N       -0.33600         7.66516        -0.39886
   C        0.03333         7.79122         0.98955
   C       -1.10914         7.47403         1.94888
   C       -0.50407         8.81064        -1.19742
   O       -0.39820         9.94518        -0.76538
   C       -0.80857         8.29940        -2.50594
   C       -0.81477         6.87792        -2.43303
   C       -1.19872         6.37391        -3.73435
   O       -1.31915         5.24935        -4.17019
   N       -1.42223         7.53777        -4.50276
   C       -1.86727         7.46349        -5.87475
   C       -3.38965         7.39544        -5.96119
   C       -1.19360         8.67520        -3.78414
   C       -1.41462        10.01395        -4.25685
   C       -0.75149        11.06721        -3.76332
   C       -1.17555        12.44249        -4.00387
   C       -0.65254        13.48212        -4.72486
   O       -1.40541        14.57883        -4.61697
   C       -2.43781        14.26846        -3.81238
   N       -3.39681        15.24329        -3.46141
   O       -4.28184        14.86748        -2.71297
   O       -3.28390        16.35601        -3.92146
   C       -2.35771        12.96006        -3.39127
   C       -3.20390        12.17160        -2.51549
   C       -2.74932        11.75309        -1.32380
   C       -3.30366        10.74927        -0.43329
   C       -3.99853         9.65113        -0.86003
   C       -4.32810         8.56526        -0.02430
   N       -4.57650         7.64939         0.62143
   C       -4.31188         9.43558        -2.21680
   N       -4.53530         9.20883        -3.31979
   C       -2.71464        10.94560         0.87777
   C       -1.64354        11.88034         0.75756
   C       -1.57231        12.37572        -0.62739
   O       -0.79945        13.16697        -1.10727
   C       -0.83261        12.17016         1.81632
   C       -1.06190        11.53253         3.05762
   C       -2.15836        10.63223         3.19347
   C       -2.98838        10.35615         2.08352
   C       -2.37358        10.00199         4.43636
   C       -1.54228        10.24101         5.49639
   C       -0.46267        11.12717         5.36225
   C       -0.22852        11.75941         4.17091
   H       -1.11047         3.52996         7.28107
   H        1.09498         7.38859         5.01267
   H        0.81357         8.72008         7.01347
   H        0.00649         8.96602         9.33200
   H       -1.09295         7.07837        10.46807
   H       -1.39029         4.92976         9.30270
   H       -0.45485         1.97634         2.19193
   H       -0.76612         3.92030        -2.39595
   H       -0.76578         1.29382        -1.72137
   H        0.33588         8.83554         1.11732
   H        0.89583         7.15081         1.18786
   H       -1.99336         8.04385         1.67743
   H       -0.81863         7.74593         2.96082
   H       -1.36470         6.41857         1.93147
   H       -1.43463         6.55291        -6.29874
   H       -1.47872         8.32859        -6.41711
   H       -3.74335         6.47632        -5.50144
   H       -3.70031         7.40651        -7.00205
   H       -3.84661         8.23399        -5.44232
   H       -2.18676        10.15192        -5.00156
   H        0.05153        10.93224        -3.05172
   H        0.22494        13.54354        -5.33863
   H       -4.17920        11.89012        -2.88991
   H       -0.01244        12.86316         1.70534
   H       -3.82493         9.68479         2.21090
   H       -3.20399         9.31779         4.53246
   H       -1.71224         9.74743         6.44199
   H        0.18149        11.31102         6.20925
   H        0.60219        12.44107         4.06462
*
