# ORCA input file
# SCF done       -202.295234248803          0.000534254016
! CAM-B3LYP def2-SVP def2/J RIJCOSX Grid4 TightSCF
%maxcore 5000
%tddft
    Mode sTDDFT
    Ethresh 5.0
    maxcore 5000
end

%pal
  nprocs 6
  end
* xyz 0 1
   C        3.45111         2.13662        -1.95625
   C        3.43357         2.35261        -3.31009
   C        4.38085         1.81273        -4.20656
   N        5.11482         1.41496        -4.99464
   C        2.47903         3.10116        -4.03118
   N        1.74711         3.67368        -4.70679
   C        4.41308         1.28775        -1.26324
   C        4.03370         1.20172         0.10486
   C        4.73963         0.46113         1.00859
   C        5.88925        -0.23675         0.57703
   C        6.28380        -0.14815        -0.78915
   C        5.52784         0.62263        -1.70199
   C        7.43679        -0.84255        -1.20868
   C        8.16477        -1.58998        -0.32341
   C        7.77395        -1.67801         1.02108
   C        6.66026        -1.01589         1.46176
   C        2.82771         2.01242         0.33627
   O        2.23981         2.11587         1.39350
   C        2.51295         2.65139        -0.96670
   C        1.58583         3.61756        -1.24312
   C        0.62142         4.25722        -0.43387
   S       -0.30105         5.54737        -1.18501
   C       -1.18518         5.85747         0.26724
   C       -0.77544         4.97339         1.28250
   C        0.22722         4.08614         0.88158
   C       -1.28676         4.95387         2.59113
   N       -1.67877         4.91405         3.66960
   C       -2.13277         6.90615         0.28561
   C       -2.87597         7.26841         1.36752
   C       -3.76564         8.36602         1.34948
   N       -4.48647         8.77690         2.45245
   C       -4.45060         8.18896         3.77075
   C       -3.21364         8.61654         4.55609
   C       -5.25338         9.91400         2.18325
   O       -5.96197        10.46747         3.01031
   C       -4.99450        10.20627         0.79485
   C       -4.08088         9.23735         0.30875
   C       -3.82780         9.52844        -1.08514
   O       -3.12668         8.98749        -1.91687
   N       -4.61817        10.66135        -1.35416
   C       -4.60366        11.29383        -2.65159
   C       -3.69410        12.51948        -2.67695
   C       -5.30474        11.08459        -0.24452
   C       -6.14291        12.23052        -0.22564
   C       -6.73544        12.61724         0.92682
   N       -7.52009        13.72543         1.09762
   C       -8.03409        14.10026         2.33464
   C       -7.82893        13.31786         3.56764
   C       -8.71121        15.27255         2.17100
   C       -8.63869        15.66858         0.78567
   C       -7.87037        14.67375         0.07855
   O       -7.55140        14.58058        -1.08306
   C       -9.29113        16.85568         0.62735
   C       -9.49321        17.67075        -0.58776
   N       -9.74461        17.26090         1.86700
   C       -9.46243        16.26974         2.88805
   O       -9.89870        16.32746         4.00650
   C      -10.45322        18.40336         2.12045
   C      -10.26276        19.12519         3.25184
   C      -11.07904        20.20644         3.77279
   C      -12.29142        20.61721         3.28508
   C      -13.06591        21.65167         3.85109
   N      -13.74065        22.48506         4.26029
   C      -12.92215        20.06795         2.15015
   N      -13.47199        19.66352         1.22663
   C      -10.40146        20.74015         4.94707
   C       -9.18624        20.02278         5.14539
   C       -9.03213        19.01155         4.08937
   O       -8.05856        18.32833         3.86111
   C       -8.33778        20.31151         6.17495
   C       -8.67515        21.34519         7.07689
   C       -9.88712        22.06985         6.88454
   C      -10.74323        21.75245         5.80577
   C      -10.20991        23.10452         7.78645
   C       -9.37760        23.40938         8.82882
   C       -8.18537        22.69438         9.01789
   C       -7.84212        21.68370         8.16123
   H        4.42483         0.41123         2.04043
   H        5.85680         0.66928        -2.72759
   H        7.73296        -0.77290        -2.24509
   H        9.04635        -2.11811        -0.65459
   H        8.35988        -2.27274         1.70583
   H        6.35433        -1.07949         2.49580
   H        1.58857         3.99738        -2.25814
   H        0.65908         3.34518         1.53047
   H       -2.24469         7.45858        -0.63867
   H       -2.78313         6.71820         2.29066
   H       -4.49638         7.10002         3.68788
   H       -5.34993         8.54305         4.28256
   H       -2.30295         8.29438         4.05677
   H       -3.23961         8.17186         5.54657
   H       -3.19224         9.69898         4.65809
   H       -5.62384        11.56317        -2.93674
   H       -4.22593        10.54199        -3.35015
   H       -4.03961        13.27606        -1.97636
   H       -3.68512        12.94752        -3.67532
   H       -2.67879        12.23497        -2.41113
   H       -6.28018        12.79157        -1.13491
   H       -6.58739        12.03201         1.82525
   H       -6.76863        13.23803         3.80805
   H       -8.20707        12.30146         3.45734
   H       -8.34542        13.81030         4.38682
   H       -8.99850        17.19205        -1.42811
   H       -9.08674        18.67263        -0.44855
   H      -10.55676        17.76994        -0.80960
   H      -11.18363        18.68556         1.37214
   H       -7.42222        19.75334         6.30219
   H      -11.65018        22.32315         5.68349
   H      -11.12934        23.65140         7.63746
   H       -9.63340        24.20353         9.51403
   H       -7.54019        22.94869         9.84546
   H       -6.92554        21.12974         8.30178
*
