# ORCA input file
# SCF done       -169.385310615640          0.000679177237
! CAM-B3LYP def2-SVP def2/J RIJCOSX Grid4 TightSCF
%maxcore 5000
%tddft
    Mode sTDDFT
    Ethresh 5.0
    maxcore 5000
end

%pal
  nprocs 6
  end
* xyz 0 1
   C       -1.58273        -1.79846         0.82133
   N       -1.93288        -1.04179         1.89619
   C       -2.05431        -1.51122         3.25341
   C       -0.68762        -1.73250         3.89625
   C       -2.11037         0.31150         1.53777
   O       -2.42471         1.17736         2.33451
   C       -1.84720         0.33632         0.12050
   C       -1.52126        -0.99954        -0.28439
   C       -1.25158        -0.98112        -1.70734
   O       -0.93388        -1.84633        -2.49172
   N       -1.42956         0.37021        -2.06979
   C       -1.28783         0.79413        -3.44118
   C       -2.63995         0.95558        -4.13240
   C       -1.78791         1.15585        -0.99661
   C       -2.02696         2.55600        -1.09779
   C       -2.38038         3.30751        -0.03089
   C       -2.63415         4.71934        -0.06148
   C       -2.75195         5.50448        -1.22422
   N       -2.97303         6.79278        -1.18830
   C       -3.09832         7.37888         0.00567
   N       -3.01985         6.73075         1.17396
   C       -2.79811         5.43841         1.13550
   C       -3.34814         8.79778        -0.02415
   N       -3.34983         9.63661         1.05948
   C       -3.02926         9.31171         2.42886
   C       -1.52354         9.17680         2.63448
   C       -3.62639        10.96769         0.68464
   O       -3.67643        11.89411         1.46711
   C       -3.82121        10.89602        -0.74417
   C       -3.64549         9.55045        -1.15326
   C       -3.87162         9.49950        -2.58485
   O       -3.84466         8.61063        -3.40204
   N       -4.16810        10.84484        -2.93847
   C       -4.44096        11.16460        -4.31766
   C       -5.93804        11.13489        -4.62152
   C       -4.14401        11.67842        -1.84775
   C       -4.35225        13.08394        -1.75350
   C       -4.83331        13.95081        -2.67156
   C       -4.97187        15.36531        -2.45552
   C       -4.40342        16.08570        -1.38654
   N       -4.53684        17.38068        -1.26019
   C       -5.24077        18.03697        -2.18588
   N       -5.84420        17.45500        -3.22780
   C       -5.70423        16.15628        -3.35536
   C       -5.29957        19.47040        -2.02778
   N       -6.22394        20.30378        -2.60301
   C       -7.38373        19.91911        -3.37121
   C       -8.47750        19.33878        -2.47943
   C       -5.99599        21.64750        -2.25665
   O       -6.69894        22.56449        -2.63710
   C       -4.81370        21.60910        -1.42752
   C       -4.41454        20.24670        -1.30168
   C       -3.19521        20.20799        -0.51874
   O       -2.45151        19.31945        -0.17805
   N       -2.95758        21.56992        -0.20026
   C       -1.84697        21.94466         0.63977
   C       -2.28584        22.19874         2.08013
   C       -3.90857        22.39962        -0.73444
   C       -3.88905        23.82733        -0.57937
   C       -4.82412        24.62461        -1.09965
   H       -1.41094        -2.85426         0.92078
   H       -2.63404        -2.43911         3.26160
   H       -2.60344        -0.73984         3.80000
   H       -0.11913        -2.47727         3.34360
   H       -0.81187        -2.07621         4.91922
   H       -0.12466        -0.80249         3.90665
   H       -0.71492         0.00726        -3.94022
   H       -0.71450         1.72485        -3.48183
   H       -3.17286         0.00801        -4.12765
   H       -2.49139         1.26574        -5.16304
   H       -3.25309         1.69891        -3.62744
   H       -1.90447         3.01080        -2.06964
   H       -2.47469         2.83399         0.93807
   H       -2.67773         5.07800        -2.21588
   H       -2.73718         4.93624         2.09355
   H       -3.53161         8.38382         2.70401
   H       -3.41271        10.14112         3.02981
   H       -1.13403         8.35216         2.04296
   H       -1.31319         8.98330         3.68230
   H       -1.01939        10.09431         2.33990
   H       -3.94448        10.39047        -4.91116
   H       -3.99638        12.13200        -4.56206
   H       -6.32001        10.12929        -4.46554
   H       -6.11241        11.41606        -5.65675
   H       -6.48732        11.81342        -3.97209
   H       -4.10004        13.45665        -0.76888
   H       -5.17585        13.61207        -3.63816
   H       -3.81418        15.60209        -0.61940
   H       -6.20255        15.71238        -4.21027
   H       -7.08510        19.19091        -4.12646
   H       -7.74131        20.83399        -3.85169
   H       -8.12649        18.43445        -1.98796
   H       -9.34920        19.09298        -3.07932
   H       -8.76806        20.06094        -1.71986
   H       -1.34707        22.82349         0.22267
   H       -1.15316        21.09935         0.61307
   H       -3.01063        23.00846         2.13087
   H       -1.42391        22.46053         2.68772
   H       -2.74122        21.30096         2.49047
   H       -3.06681        24.24580        -0.01540
   H       -5.65089        24.22892        -1.66577
   H       -4.77916        25.69247        -0.97105
*
