# ORCA input file
# SCF done       -226.852872137125          0.000331841342
! CAM-B3LYP def2-SVP def2/J RIJCOSX Grid4 TightSCF
%maxcore 5000
%tddft
    Mode sTDDFT
    Ethresh 5.0
    maxcore 5000
end

%pal
  nprocs 6
  end
* xyz 0 1
   C        9.77909        -9.12950         1.49164
   C        9.56091        -7.90382         0.79931
   C        9.49674        -6.63342         1.40618
   O        9.65340        -6.64034         2.74959
   C        9.65187        -5.42859         3.48463
   C        9.88659        -5.78535         4.94384
   C        9.28198        -5.55389         0.56146
   C        9.13347        -5.74634        -0.83845
   C        9.19715        -7.02014        -1.44909
   C        9.41776        -8.09290        -0.59775
   S        9.57776        -9.79692        -0.98616
   C        9.80831       -10.20185         0.67707
   O        9.06519        -7.00166        -2.79821
   C        8.72994        -8.16977        -3.52386
   C        7.28892        -8.60552        -3.28581
   C        8.90156        -4.54225        -1.53214
   C        8.85474        -3.43787        -0.72273
   S        9.14336        -3.84863         0.95226
   C        8.66177        -2.06710        -1.03640
   N        9.07787        -1.14352        -0.18130
   C        8.80755         0.04289        -0.75692
   C        8.15670        -0.13437        -2.06234
   C        7.85828         1.17331        -2.66552
   O        7.33102         1.41465        -3.73255
   C        8.36268         2.11944        -1.65498
   C        8.93523         1.39016        -0.50896
   N        9.39008         2.25372         0.43047
   C        9.13528         3.44797        -0.05211
   C        8.49129         3.43742        -1.34599
   C        8.03039        -1.49032        -2.24876
   C        7.38760        -2.23123        -3.28042
   C        6.86555        -1.66905        -4.39362
   C        6.20037        -2.38262        -5.45241
   C        5.43956        -1.67047        -6.35882
   C        4.75027        -2.34120        -7.38367
   C        3.90158        -1.86373        -8.38195
   C        3.50333        -0.44210        -8.58817
   C        3.95767         0.07574        -9.96380
   N        5.40697         0.10286       -10.00008
   C        1.99014        -0.25146        -8.37662
   N        1.67205        -0.52095        -6.98832
   C        3.46718        -3.00691        -9.14555
   C        2.64016        -3.13399       -10.20452
   C        2.28131        -4.47118       -10.73575
   C        3.12456        -5.60374       -10.24670
   C        3.94342        -5.46491        -9.17745
   C        4.11817        -4.20452        -8.57796
   C        4.88162        -3.78275        -7.50203
   C        5.68881        -4.48635        -6.58254
   C        6.31626        -3.80489        -5.58951
   C        0.99352        -4.91952       -10.09207
   C        0.02086        -5.59354       -10.73203
   C       -1.13513        -6.05949       -10.04381
   N       -1.32975        -5.81727        -8.75095
   C       -2.51673        -6.37145        -8.44919
   C       -3.13153        -7.00397        -9.62707
   C       -4.42363        -7.60354        -9.27002
   O       -5.20888        -8.19576        -9.98513
   C       -4.53433        -7.30533        -7.83203
   C       -3.35591        -6.55141        -7.37191
   N       -3.44837        -6.27606        -6.04896
   C       -4.58965        -6.80622        -5.66964
   C       -5.31569        -7.46428        -6.72912
   C       -2.24550        -6.82113       -10.65940
   C       -2.29242        -7.22939       -12.02332
   C       -3.37319        -7.81329       -12.58017
   C       -3.46548        -8.26826       -13.94273
   C       -2.72820        -7.82020       -15.10446
   C       -1.90786        -6.70571       -15.32586
   O       -1.63797        -5.71774       -14.40493
   C       -2.73628        -4.87119       -14.09100
   C       -3.14036        -3.98380       -15.26198
   C       -1.30558        -6.59764       -16.57076
   C       -1.48557        -7.49310       -17.65524
   C       -2.39571        -8.54488       -17.47391
   C       -2.97724        -8.65895       -16.21290
   S       -4.14467        -9.90295       -15.85644
   C       -4.27638        -9.32668       -14.24773
   O       -2.78046        -9.52199       -18.33680
   C       -2.68427        -9.37868       -19.73980
   C       -3.49300        -8.20497       -20.27894
   C       -0.68267        -7.08915       -18.77052
   C        0.03248        -5.97091       -18.53580
   S       -0.20060        -5.30971       -16.95683
   H        9.90528        -9.16970         2.55726
   H        8.68828        -4.91818         3.36964
   H       10.44765        -4.76657         3.12355
   H       10.84055        -6.29364         5.05479
   H        9.09840        -6.44402         5.29827
   H        9.89243        -4.88054         5.54376
   H        9.95830       -11.23186         0.93411
   H        9.42457        -8.98619        -3.30175
   H        8.86672        -7.87421        -4.56799
   H        6.60788        -7.79207        -3.52534
   H        7.13908        -8.88956        -2.24727
   H        7.05837        -9.45863        -3.91675
   H        8.83483        -4.52003        -2.60328
   H        9.40429         4.32708         0.50764
   H        8.19721         4.30367        -1.90529
   H        7.28517        -3.29189        -3.10988
   H        6.91909        -0.59429        -4.50878
   H        5.35874        -0.59856        -6.26244
   H        4.00987         0.16626        -7.83532
   H        3.60432         1.10254       -10.09345
   H        3.51111        -0.54116       -10.76148
   H        5.78214        -0.83300        -9.88677
   H        5.74256         0.47960       -10.87857
   H        1.43096        -0.88447        -9.08563
   H        1.73179         0.79177        -8.57920
   H        1.87621        -1.48774        -6.75782
   H        0.69126        -0.35031        -6.80037
   H        2.14289        -2.29128       -10.66226
   H        2.17725        -4.46204       -11.82375
   H        2.98092        -6.55617       -10.73089
   H        4.49925        -6.31009        -8.79789
   H        5.79651        -5.55724        -6.67677
   H        6.94280        -4.34228        -4.89458
   H        0.89922        -4.74427        -9.03059
   H        0.08842        -5.78691       -11.79355
   H       -4.90955        -6.72635        -4.64495
   H       -6.26185        -7.95817        -6.62611
   H       -1.41223        -7.04583       -12.61973
   H       -4.22828        -8.04186       -11.95679
   H       -2.38308        -4.26563       -13.25272
   H       -3.59390        -5.46804       -13.75778
   H       -2.28684        -3.40589       -15.60832
   H       -3.92787        -3.30446       -14.94832
   H       -3.50928        -4.58998       -16.08734
   H       -4.92361        -9.83658       -13.56014
   H       -3.09518       -10.31904       -20.11811
   H       -1.63577        -9.31846       -20.05277
   H       -4.52955        -8.29735       -19.96369
   H       -3.45344        -8.20401       -21.36467
   H       -3.10239        -7.25830       -19.91274
   H       -0.62348        -7.61131       -19.70662
   H        0.70644        -5.47701       -19.20801
*
