# ORCA input file
# SCF done       -220.097910142523          0.000522641921
! CAM-B3LYP def2-SVP def2/J RIJCOSX Grid4 TightSCF
%maxcore 5000
%tddft
    Mode sTDDFT
    Ethresh 5.0
    maxcore 5000
end

%pal
  nprocs 6
  end
* xyz 0 1
   C       13.31364        -1.96016        13.54844
   C       14.18177        -2.18596        12.52385
   C       13.67562        -2.45957        11.23051
   C       14.31864        -2.72100        10.02849
   C       15.79292        -2.78259         9.81451
   C       16.25313        -4.18923         9.39861
   N       15.90262        -5.15225        10.43043
   C       16.27191        -1.73161         8.79725
   N       17.72447        -1.65416         8.81793
   C       13.28945        -2.92223         9.03812
   C       13.34119        -3.21783         7.72447
   C       12.10981        -3.32892         6.89964
   C       10.82992        -3.24812         7.66121
   C       10.78984        -2.95434         8.97817
   C       11.98505        -2.77487         9.70347
   C       12.23628        -2.48902        11.03812
   C       11.37353        -2.24718        12.12641
   C       11.90954        -1.98964        13.35305
   C       12.11755        -2.15725         5.94354
   C       12.14650        -2.28566         4.61316
   C       12.10978        -1.20512         3.67588
   C       12.14480        -1.43316         2.23412
   N       12.06377        -0.35157         1.50917
   C       11.96583         0.66666         2.40644
   C       12.00488         0.16813         3.78652
   C       11.91282         1.28546         4.69981
   S       12.07027         1.21724         6.34111
   C       11.73750         2.44833         3.86066
   C       11.80734         2.02921         2.45402
   N       11.67430         3.09116         1.61355
   C       11.53708         4.12516         2.39348
   C       11.55643         3.82374         3.82557
   C       11.33347         4.81389         4.84131
   C       11.40679         6.16172         4.52542
   C       11.12228         7.14244         5.48884
   C       11.05610         8.53687         5.42176
   C       11.33928         9.49020         4.31668
   C       12.76364        10.08791         4.50620
   N       12.73531        11.15004         5.48699
   C       11.19877         8.92919         2.89754
   N       11.18842        10.03354         1.95015
   C       10.70068         8.99652         6.74497
   C       10.50621        10.24235         7.21963
   C       10.11071        10.47884         8.63242
   C       10.01699         9.23937         9.47384
   C       10.21954         8.00535         8.97963
   C       10.54923         7.82920         7.61414
   C       10.79130         6.71012         6.84177
   C       10.74781         5.33174         7.14564
   C       10.99898         4.41822         6.17425
   C       10.97533        11.48579         9.34665
   C       12.19511        11.87087         8.95771
   C       12.98388        12.82615         9.68000
   C       12.60077        13.52984        10.90280
   N       13.49270        14.37502        11.34542
   C       14.52759        14.29683        10.46601
   C       14.24196        13.32111         9.40769
   C       15.34972        13.26947         8.48384
   S       15.45389        12.33283         7.13237
   C       16.30347        14.22431         8.99251
   C       15.76025        14.84642        10.21069
   N       16.60841        15.79106        10.69785
   C       17.60723        15.81791         9.85834
   C       17.50409        14.86936         8.75375
   C       18.50364        14.71951         7.73133
   C       19.34034        15.77475         7.42575
   C       20.31419        15.63906         6.42023
   C       21.26245        16.53048         5.92738
   C       21.54167        17.93282         6.35082
   C       20.29015        18.82970         6.29902
   N       20.68482        20.18646         5.96366
   C       22.18853        17.94868         7.74887
   N       23.50036        17.33013         7.67756
   C       22.00589        15.82409         4.91179
   C       23.04544        16.21036         4.14773
   C       23.64657        15.30097         3.13595
   C       23.06695        13.92224         3.11419
   C       22.03252        13.54898         3.88979
   C       21.46040        14.46527         4.80530
   C       20.43372        14.36387         5.72271
   C       19.56750        13.29979         6.06343
   C       18.63578        13.47649         7.03329
   C       23.45777        15.93183         1.76938
   C       24.44495        16.30964         0.98174
   H       13.68875        -1.75138        14.54027
   H       15.24832        -2.15781        12.69295
   H       16.28123        -2.55331        10.76878
   H       17.33289        -4.13548         9.18643
   H       15.73989        -4.49463         8.48445
   H       16.36821        -4.91918        11.30154
   H       16.20243        -6.08222        10.15957
   H       15.77936        -0.77251         9.02889
   H       15.97461        -2.02248         7.78792
   H       18.04253        -1.29809         9.71406
   H       18.05249        -1.01647         8.10111
   H       14.27410        -3.33532         7.19265
   H       12.14456        -4.25407         6.30998
   H        9.92639        -3.38304         7.08655
   H        9.84406        -2.87326         9.49455
   H       10.30377        -2.26737        11.97812
   H       11.26707        -1.80212        14.20103
   H       12.07573        -1.18428         6.40968
   H       12.19253        -3.27294         4.16608
   H       12.22552        -2.40037         1.76751
   H       11.39013         5.09739         1.95688
   H       11.70412         6.46014         3.53586
   H       10.63904        10.32948         4.40330
   H       13.10047        10.42489         3.51675
   H       13.43607         9.30205         4.85721
   H       12.41091        12.01388         5.06544
   H       13.65530        11.32089         5.87926
   H       10.29304         8.30214         2.84443
   H       12.06821         8.31412         2.65423
   H       10.35183        10.59557         2.07040
   H       11.19236         9.68608         0.99784
   H       10.61718        11.11466         6.59536
   H        9.09900        10.92322         8.59571
   H        9.77768         9.39176        10.51553
   H       10.13856         7.13661         9.61682
   H       10.50209         5.01540         8.14852
   H       10.95180         3.36554         6.39607
   H       10.54519        11.86806        10.26190
   H       12.62937        11.47293         8.05020
   H       11.67743        13.40368        11.43987
   H       18.43820        16.47823        10.03730
   H       19.22589        16.71955         7.93334
   H       22.26609        18.36747         5.65715
   H       19.74045        18.76200         7.25205
   H       19.62786        18.47603         5.50393
   H       21.26613        20.57901         6.69652
   H       19.86987        20.78068         5.86110
   H       21.51044        17.45406         8.46469
   H       22.33201        18.98340         8.07371
   H       23.40885        16.35738         7.40149
   H       23.95720        17.35702         8.58230
   H       23.46909        17.20255         4.21613
   H       24.72792        15.23749         3.32031
   H       23.51424        13.23757         2.40941
   H       21.63414        12.54622         3.83435
   H       19.65799        12.35374         5.55064
   H       17.97434        12.67075         7.30543
   H       22.42509        16.04524         1.47113
   H       25.47932        16.20247         1.26545
   H       24.25925        16.74352         0.01397
*
