# ORCA input file
# SCF done       -241.449040203439          0.002064791929
! CAM-B3LYP def2-SVP def2/J RIJCOSX Grid4 TightSCF
%maxcore 5000
%tddft
    Mode sTDDFT
    Ethresh 5.0
    maxcore 5000
end

%pal
  nprocs 6
  end
* xyz 0 1
   C        4.24918         2.45116         2.20583
   C        3.72403         3.51160         3.12871
   O        4.11810         4.65146         3.18497
   C        2.61703         2.86766         3.84763
   C        2.56431         1.51079         3.51527
   C        3.65148         1.18479         2.60457
   C        4.10044        -0.06733         2.29329
   C        5.24676        -0.34034         1.51991
   N        6.17570        -0.63757         0.91333
   C        3.50538        -1.26414         2.75303
   N        3.06917        -2.27175         3.08555
   C        1.55926         0.68857         4.04426
   C        0.63366         1.24012         4.89030
   C        0.66152         2.60652         5.24876
   C        1.67782         3.45411         4.71867
   C        1.69954         4.81819         5.07406
   C        0.74980         5.32249         5.91976
   C       -0.25455         4.49254         6.44294
   C       -0.29802         3.16411         6.11705
   C        4.98003         2.81792         1.14305
   C        5.35413         2.04135        -0.02626
   C        4.43502         1.39034        -0.86085
   C        2.97957         1.36262        -0.64300
   O        2.34414         1.87078         0.23802
   S        2.21122         0.38981        -1.93537
   C        3.77855         0.03053        -2.74831
   O        3.85923        -0.66195        -3.71860
   C        4.85451         0.70380        -2.00794
   C        6.19725         0.62732        -2.39102
   C        7.11380         1.27001        -1.55189
   C        6.69856         1.95554        -0.41075
   C        7.78405         2.52162         0.40188
   O        7.69218         3.09618         1.44668
   S        9.34345         2.20064        -0.42127
   C        8.56877         1.32304        -1.78747
   O        9.19565         0.89435        -2.71084
   C        6.62500        -0.05557        -3.62010
   C        7.42926        -1.16365        -3.55647
   C        7.89342        -1.74396        -4.75273
   C        8.77471        -2.80123        -4.97094
   C        9.40007        -3.65893        -3.93171
   C        9.10686        -5.15538        -4.18251
   N        9.20868        -5.86184        -2.92825
   C       10.91322        -3.38592        -3.82046
   N       11.45889        -4.04642        -2.64382
   C        8.98133        -2.88133        -6.39913
   C        9.80564        -3.64125        -7.14785
   C        9.88875        -3.47064        -8.62257
   C        8.89938        -2.51939        -9.20868
   C        8.09781        -1.74881        -8.44362
   C        8.13726        -1.86473        -7.03775
   C        7.49283        -1.16632        -6.02034
   C        6.63064        -0.05556        -6.04677
   C        6.21341         0.48804        -4.86811
   C        9.83250        -4.82528        -9.27862
   C       10.80648        -5.29969       -10.04016
   C       10.81341        -6.62342       -10.65643
   C       10.89569        -6.75968       -12.04554
   C       10.86517        -5.60285       -12.94747
   O       10.76289        -4.44465       -12.65919
   S       10.98725        -6.18989       -14.63879
   C       11.05386        -7.91778       -14.14820
   O       11.13481        -8.80310       -14.95340
   C       10.99873        -8.00216       -12.68241
   C       11.03335        -9.19244       -11.93918
   C       10.91323        -9.05466       -10.55040
   C       10.80621        -7.81178        -9.91805
   C       10.78619        -7.88517        -8.44786
   O       10.71056        -6.99397        -7.65005
   S       10.89934        -9.60685        -7.95156
   C       11.01091       -10.20266        -9.63962
   O       11.15592       -11.35565        -9.92206
   C       11.17376       -10.50617       -12.54323
   C       12.11888       -10.91523       -13.40335
   C       11.92772       -12.19562       -14.16209
   O       11.15472       -13.07673       -13.87333
   C       12.81941       -12.07765       -15.32460
   C       13.58836       -10.91549       -15.21432
   C       13.28979       -10.24828       -13.95692
   C       14.04769        -9.28385       -13.35558
   C       13.83152        -8.78308       -12.05604
   N       13.73702        -8.34373       -10.99947
   C       15.19349        -8.69346       -13.93504
   N       16.12121        -8.15919       -14.34689
   C       14.48808       -10.55797       -16.22848
   C       14.61095       -11.37761       -17.31892
   C       13.86291       -12.56881       -17.45230
   C       12.93135       -12.93493       -16.43695
   C       12.17676       -14.11683       -16.58109
   C       12.34502       -14.90885       -17.68394
   C       13.26674       -14.55717       -18.68259
   C       14.00856       -13.41250       -18.57135
   H        1.50264        -0.35449         3.77971
   H       -0.15125         0.62108         5.30044
   H        2.47375         5.44750         4.66464
   H        0.76560         6.36756         6.19062
   H       -0.99611         4.91281         7.10595
   H       -1.06948         2.52347         6.51887
   H        5.31768         3.85113         1.14492
   H        7.71135        -1.57636        -2.59985
   H        8.94976        -3.41734        -2.96386
   H        9.78926        -5.53813        -4.95684
   H        8.08161        -5.26330        -4.55500
   H       10.14310        -5.74305        -2.54690
   H        8.98949        -6.84436        -3.02815
   H       11.06540        -2.29315        -3.81352
   H       11.42741        -3.79075        -4.69603
   H       11.08416        -3.62134        -1.80135
   H       12.46726        -3.94223        -2.61860
   H       10.44579        -4.40306        -6.72939
   H       10.88991        -3.05937        -8.83507
   H        8.88801        -2.45671       -10.28582
   H        7.41730        -1.04168        -8.89450
   H        6.32284         0.36861        -6.99032
   H        5.57323         1.35767        -4.86306
   H        8.93907        -5.39985        -9.08103
   H       11.67083        -4.69054       -10.27463
   H       10.41574       -11.23910       -12.28441
   H       15.06338        -9.64924       -16.16145
   H       15.29823       -11.11505       -18.11019
   H       11.47109       -14.37754       -15.80838
   H       11.76714       -15.81415       -17.79372
   H       13.38474       -15.19819       -19.54357
   H       14.71737       -13.13920       -19.33934
*
