# ORCA input file
# SCF done       -181.487697871756          0.000745512450
! CAM-B3LYP def2-SVP def2/J RIJCOSX Grid4 TightSCF
%maxcore 5000
%tddft
    Mode sTDDFT
    Ethresh 5.0
    maxcore 5000
end

%pal
  nprocs 6
  end
* xyz 0 1
   C        2.31008        -3.74440        -3.54450
   C        1.43128        -4.66892        -4.33158
   O        0.43079        -4.35135        -4.93072
   C        2.10307        -5.97416        -4.24868
   C        3.16326        -5.90313        -3.33899
   C        3.20361        -4.57251        -2.75352
   C        3.73124        -4.23841        -1.53381
   C        3.55457        -2.97674        -0.93327
   N        3.41594        -1.97389        -0.39045
   C        4.43411        -5.12673        -0.69833
   N        5.01003        -5.78962         0.04180
   C        3.99784        -7.00373        -3.11306
   C        3.74768        -8.16340        -3.79871
   C        2.67316        -8.27979        -4.70962
   C        1.82237        -7.16122        -4.95360
   C        0.76084        -7.28218        -5.87245
   C        0.54554        -8.46755        -6.52121
   C        1.37730        -9.57287        -6.28313
   C        2.41784        -9.48224        -5.39850
   C        2.27700        -2.40774        -3.73543
   C        3.30874        -1.49244        -3.36843
   C        3.13188        -0.10249        -2.91460
   N        4.23965         0.50868        -2.62616
   C        5.23772        -0.38270        -2.89177
   C        4.67102        -1.65561        -3.38773
   C        5.72812        -2.58333        -3.69868
   S        5.57499        -4.08060        -4.36308
   C        6.92906        -1.89276        -3.30266
   C        6.59268        -0.53760        -2.81256
   N        7.70965         0.08825        -2.33337
   C        8.66970        -0.77658        -2.43962
   C        8.26682        -2.05877        -3.03948
   C        9.09314        -3.20870        -3.16547
   S       10.40993        -3.44080        -2.04808
   C       10.66552        -5.06182        -2.58537
   C        9.80674        -5.35399        -3.64811
   C        8.91882        -4.31768        -3.96082
   N        9.67980        -6.63369        -4.26338
   O       10.17696        -7.58933        -3.69863
   O        9.07688        -6.68528        -5.31060
   C       11.49093        -5.93866        -1.82349
   C       12.28006        -7.10893        -2.24312
   N       12.69017        -7.83991        -1.25301
   C       12.20016        -7.26580        -0.12249
   C       11.56702        -5.96364        -0.45010
   C       10.93422        -5.39709         0.71061
   S       10.36167        -3.87177         0.94707
   C       10.95847        -6.49246         1.64268
   C       11.85326        -7.57490         1.16378
   N       11.84440        -8.60702         2.04764
   C       10.96190        -8.30247         2.95126
   C       10.29162        -7.01571         2.72163
   C        9.17837        -6.46405         3.43503
   C        8.18139        -5.75282         2.86736
   C        7.30367        -4.84110         3.66970
   O        7.09576        -4.91757         4.85654
   C        6.86021        -3.82174         2.70208
   C        7.25580        -4.18992         1.41225
   C        7.89263        -5.49368         1.46504
   C        8.00632        -6.38788         0.43864
   C        8.44877        -7.71507         0.62053
   N        8.78590        -8.80505         0.74061
   C        7.67977        -6.09837        -0.89810
   N        7.49934        -5.90362        -2.01564
   C        7.02030        -3.34669         0.31804
   C        6.38650        -2.15335         0.53473
   C        5.93210        -1.76910         1.81616
   C        6.17351        -2.61476         2.93929
   C        5.72227        -2.21806         4.21408
   C        5.04613        -1.03791         4.36560
   C        4.79780        -0.20852         3.26065
   C        5.23404        -0.56225         2.01209
   H        4.83806        -6.92705        -2.44113
   H        4.38794        -9.02067        -3.65085
   H        0.12943        -6.42582        -6.04978
   H       -0.26853        -8.56003        -7.22432
   H        1.19001       -10.49843        -6.80684
   H        3.05956       -10.33147        -5.21482
   H        1.42398        -2.00602        -4.27223
   H        2.18200         0.38913        -2.80036
   H        9.66880        -0.54073        -2.11624
   H        8.15411        -4.41575        -4.71005
   H       12.56108        -7.34497        -3.25285
   H       10.76229        -8.96287         3.77621
   H        9.15848        -6.58619         4.51213
   H        7.35129        -3.62862        -0.66985
   H        6.21224        -1.47156        -0.28530
   H        5.91759        -2.86305         5.05633
   H        4.69601        -0.73751         5.34192
   H        4.25777         0.71539         3.40368
   H        5.03953         0.06751         1.15718
*
