# ORCA input file
# SCF done       -178.435081331711          0.000307572508
! CAM-B3LYP def2-SVP def2/J RIJCOSX Grid4 TightSCF
%maxcore 5000
%tddft
    Mode sTDDFT
    Ethresh 5.0
    maxcore 5000
end

%pal
  nprocs 6
  end
* xyz 0 1
   C        0.92516        -4.43425         3.47477
   C       -0.17735        -4.59875         4.25066
   C       -0.35971        -5.62324         5.30906
   O        0.41147        -6.50836         5.58313
   O       -1.54372        -5.45924         5.91264
   C       -1.86894        -6.40263         6.92061
   C       -1.30943        -3.79741         3.97849
   N       -2.20886        -3.12811         3.73723
   C        2.20540        -5.05692         3.60149
   C        2.87317        -5.38206         4.74833
   C        4.21115        -5.80274         4.40124
   C        5.17622        -6.23714         5.31891
   N        5.97970        -6.57664         6.06536
   C        4.37619        -5.69619         3.04414
   C        3.13815        -5.24506         2.47573
   C        2.84430        -5.14966         1.13569
   C        3.82066        -5.11574         0.01737
   C        3.11128        -5.26097        -1.14340
   C        1.71147        -5.35629        -0.81753
   C        1.54895        -5.24498         0.54451
   C        0.69424        -5.53489        -1.76477
   N       -0.12729        -5.68012        -2.55324
   C        5.20675        -4.83066         0.16557
   C        6.14722        -5.09323        -0.77451
   C        7.55162        -4.82626        -0.66366
   C        8.40697        -5.35330        -1.62047
   C        9.78841        -5.14035        -1.53321
   C       10.83913        -5.58232        -2.34208
   C       10.73578        -6.50073        -3.50658
   C       11.29287        -5.87210        -4.80454
   N       10.66430        -6.50258        -5.93817
   C       11.42012        -7.84517        -3.18669
   N       11.16436        -8.81097        -4.23830
   C       12.05008        -5.04468        -1.77301
   C       13.33550        -5.10288        -2.17524
   C       14.44038        -4.53196        -1.35635
   C       13.99499        -3.74855        -0.17069
   C       12.70125        -3.64544         0.19181
   C       11.69325        -4.28256        -0.56980
   C       10.31622        -4.34159        -0.43987
   C        9.42858        -3.80007         0.51439
   C        8.09601        -4.04128         0.40351
   C       15.24786        -5.74921        -0.93219
   C       16.15492        -6.32231        -1.72116
   C       16.90249        -7.51327        -1.38832
   C       17.43343        -7.85048        -0.18550
   C       18.22379        -9.05842        -0.35385
   C       18.88964        -9.71374         0.68817
   N       19.43437       -10.24097         1.55077
   C       18.19998        -9.42944        -1.67228
   C       17.34263        -8.51826        -2.37374
   C       16.86333        -8.63687        -3.65918
   C       17.40260        -9.43781        -4.77483
   C       16.49985        -9.36250        -5.80669
   C       15.39350        -8.53984        -5.39491
   C       15.63110        -8.07822        -4.12144
   C       14.26547        -8.23399        -6.16629
   N       13.33905        -7.94902        -6.78239
   C       18.69355       -10.03380        -4.80930
   C       19.11703       -10.89752        -5.76862
   C       20.42631       -11.43364        -5.76618
   C       20.93863       -12.30103        -6.68822
   C       20.20104       -12.82770        -7.85896
   O       19.06660       -12.55056        -8.16917
   O       20.96938       -13.67429        -8.55584
   C       20.38033       -14.25237        -9.70887
   C       22.26980       -12.74369        -6.54381
   N       23.35588       -13.08554        -6.40201
   H        0.83859        -3.71995         2.66150
   H       -2.85196        -6.12267         7.28916
   H       -1.13145        -6.36832         7.72558
   H       -1.88666        -7.41198         6.50395
   H        2.50817        -5.31250         5.75407
   H        5.23689        -6.02222         2.49215
   H        3.49280        -5.25079        -2.14667
   H        0.62056        -5.34454         1.07312
   H        5.49665        -4.37348         1.10019
   H        5.83940        -5.59787        -1.68107
   H        8.00173        -5.93638        -2.43493
   H        9.67863        -6.70617        -3.70027
   H       12.38953        -5.96740        -4.81328
   H       11.04460        -4.80498        -4.81706
   H       10.93469        -7.48195        -5.96690
   H       10.94381        -6.06323        -6.80648
   H       11.07307        -8.17934        -2.19215
   H       12.50189        -7.70161        -3.12389
   H       10.17679        -9.04102        -4.27431
   H       11.68011        -9.66767        -4.07288
   H       13.62644        -5.60476        -3.08578
   H       15.08111        -3.90881        -1.99393
   H       14.77642        -3.28092         0.40870
   H       12.41643        -3.07428         1.06307
   H        9.81557        -3.19891         1.32358
   H        7.42185        -3.61602         1.12990
   H       14.97636        -6.18367         0.01791
   H       16.37440        -5.88851        -2.69014
   H       17.34300        -7.31410         0.74013
   H       18.63589       -10.32165        -2.07788
   H       16.59367        -9.80008        -6.78218
   H       14.95112        -7.50455        -3.52221
   H       19.38443        -9.75184        -4.02512
   H       18.45253       -11.20848        -6.55917
   H       21.08485       -11.12750        -4.95916
   H       21.14206       -14.89043       -10.14844
   H       20.07758       -13.47323       -10.41194
   H       19.50045       -14.83773        -9.43279
*
