# ORCA input file
# SCF done       -190.981176486797          0.000920856144
! CAM-B3LYP def2-SVP def2/J RIJCOSX Grid4 TightSCF
%maxcore 5000
%tddft
    Mode sTDDFT
    Ethresh 5.0
    maxcore 5000
end

%pal
  nprocs 6
  end
* xyz 0 1
   C       -8.63915        -1.67560        -1.80395
   C       -8.78360        -2.37261        -0.63981
   C       -9.04776        -3.75978        -0.58892
   N       -9.28548        -4.87791        -0.48946
   C       -8.76000        -1.81927         0.66079
   N       -8.77767        -1.45039         1.74664
   C       -8.68755        -2.23826        -3.14697
   C       -8.69395        -1.18239        -4.09408
   C       -8.74204        -1.40232        -5.45061
   C       -8.78296        -2.72568        -5.89476
   C       -8.75118        -3.77579        -4.94497
   C       -8.71135        -3.55373        -3.57418
   S       -8.80799        -5.32805        -5.71928
   C       -8.91104        -4.57315        -7.27337
   C       -8.88129        -3.22317        -7.22556
   C       -8.66895         0.10709        -3.38989
   O       -8.82722         1.20921        -3.86206
   C       -8.48219        -0.23067        -1.94360
   C       -8.26045         0.68090        -0.97326
   C       -8.08796         2.09497        -1.18102
   N       -8.73640         2.95782        -0.43040
   C       -8.41312         4.18417        -0.90971
   C       -7.47624         4.08099        -2.03925
   C       -7.13081         5.41515        -2.54055
   O       -6.40465         5.71901        -3.46651
   C       -7.88908         6.30673        -1.63968
   C       -8.66480         5.50786        -0.66528
   N       -9.35052         6.32167         0.17937
   C       -9.04772         7.53682        -0.19447
   C       -8.13020         7.60170        -1.31983
   C       -7.22219         2.74316        -2.20216
   C       -6.34660         2.04708        -3.08236
   C       -5.82189         2.65383        -4.16949
   C       -4.98580         2.13853        -5.20962
   C       -4.35815         2.96645        -6.12360
   C       -4.31844         4.44265        -6.25914
   N       -3.65453         2.17584        -6.99242
   C       -3.81178         0.86740        -6.71250
   C       -3.09518        -0.17502        -7.47516
   C       -4.65638         0.77459        -5.59394
   C       -5.10631        -0.38482        -4.94303
   C       -5.02397        -1.70605        -5.30501
   C       -5.40114        -2.66629        -4.34998
   N       -5.72680        -2.29922        -3.09689
   C       -5.80928        -3.41965        -2.38262
   C       -5.52728        -4.60287        -3.20554
   C       -5.60009        -5.83864        -2.39528
   O       -5.44014        -6.97914        -2.76866
   C       -5.90425        -5.31668        -1.05595
   C       -6.03355        -3.85106        -1.08972
   N       -6.32969        -3.36633         0.13493
   C       -6.38794        -4.42756         0.92057
   C       -6.13577        -5.66796         0.24274
   C       -5.31129        -4.14172        -4.47669
   C       -5.08791        -4.95825        -5.62362
   C       -5.51766        -4.70130        -6.88371
   C       -5.34642        -5.67395        -7.89983
   C       -5.90642        -5.77902        -9.13672
   C       -6.79610        -4.94500        -9.91506
   C       -6.88194        -3.57577        -9.90910
   C       -7.77528        -2.82993       -10.70633
   N       -8.49566        -2.15913       -11.29713
   C       -6.03596        -2.72183        -9.18592
   N       -5.35262        -1.95335        -8.67329
   C       -7.47874        -5.81076       -10.87055
   C       -6.85966        -7.08744       -10.85627
   C       -5.80580        -7.10003        -9.82774
   O       -5.03682        -7.99256        -9.55852
   C       -7.25194        -8.10721       -11.68875
   C       -8.31016        -7.86132       -12.56932
   C       -8.93463        -6.58993       -12.56287
   C       -8.53457        -5.55580       -11.72519
   S      -10.22266        -6.51625       -13.72299
   C       -9.91704        -8.14915       -14.20162
   C       -8.90167        -8.73177       -13.52677
   H       -8.75322        -0.57676        -6.14522
   H       -8.70082        -4.38790        -2.89227
   H       -8.99731        -5.20145        -8.13928
   H       -8.94909        -2.58161        -8.08643
   H       -8.25277         0.37657         0.06623
   H       -9.47053         8.38482         0.31585
   H       -7.75807         8.50180        -1.76809
   H       -6.15389         1.01746        -2.82410
   H       -6.06800         3.70008        -4.29151
   H       -4.87537         4.92652        -5.46323
   H       -4.74594         4.74703        -7.21522
   H       -3.28888         4.79974        -6.22280
   H       -3.08615         2.53356        -7.74575
   H       -2.35248         0.27524        -8.13070
   H       -3.79376        -0.75006        -8.08271
   H       -2.59795        -0.86619        -6.79665
   H       -5.58413        -0.23664        -3.98857
   H       -4.65864        -2.03249        -6.26412
   H       -6.61969        -4.30825         1.96420
   H       -6.14222        -6.63962         0.69415
   H       -4.62630        -5.91647        -5.41410
   H       -6.06531        -3.79452        -7.08798
   H       -4.75187        -6.53957        -7.61966
   H       -6.75608        -9.06485       -11.66165
   H       -9.04630        -4.60796       -11.75218
   H      -10.52733        -8.57975       -14.97155
   H       -8.57130        -9.74148       -13.68989
*
