# ORCA input file
# SCF done       -196.102094936098          0.000426547277
! CAM-B3LYP def2-SVP def2/J RIJCOSX Grid4 TightSCF
%maxcore 5000
%tddft
    Mode sTDDFT
    Ethresh 5.0
    maxcore 5000
end

%pal
  nprocs 6
  end
* xyz 0 1
   C       -6.91435         6.99979        -6.13112
   C       -6.27762         6.86466        -7.33414
   C       -6.67552         7.53776        -8.51001
   N       -6.96533         8.06026        -9.48902
   C       -5.11854         6.08174        -7.53004
   N       -4.17173         5.46473        -7.73102
   C       -8.05406         7.85246        -5.83609
   C       -8.22047         7.92738        -4.42700
   C       -9.22221         8.66443        -3.84279
   C      -10.11107         9.34109        -4.68356
   C       -9.94123         9.25362        -6.08913
   C       -8.92053         8.52177        -6.68178
   S      -11.15872        10.16181        -6.92680
   C      -11.86907        10.64080        -5.42521
   C      -11.23055        10.14886        -4.34033
   C       -7.17076         7.13077        -3.76238
   O       -6.82803         7.17750        -2.61109
   C       -6.53960         6.34754        -4.88036
   C       -5.85381         5.18905        -4.77340
   C       -5.68321         4.40781        -3.58883
   N       -6.52980         4.41449        -2.58184
   C       -6.09600         3.46505        -1.72391
   C       -4.91432         2.76774        -2.25533
   C       -4.44979         1.74256        -1.30652
   O       -3.54229         0.95036        -1.43395
   C       -5.37905         1.91203        -0.17203
   C       -6.38170         2.95920        -0.48143
   N       -7.23237         3.12661         0.56177
   C       -6.82178         2.28841         1.47786
   C       -5.65944         1.50473         1.08954
   C       -4.61667         3.38147        -3.44655
   C       -3.55244         3.15822        -4.36388
   C       -2.82221         2.01627        -4.34214
   C       -1.71269         1.72375        -5.17307
   S       -1.14388         0.08598        -5.27694
   C        0.18749         0.51675        -6.32069
   C        0.17738         1.89190        -6.54844
   C       -0.90034         2.55755        -5.93412
   S       -1.00499         4.27750        -6.17019
   C        0.47639         4.42398        -7.14734
   O        0.88352         5.45947        -7.56705
   S        1.30090         2.86885        -7.43483
   C        1.04276        -0.50494        -6.77138
   C        2.20212        -0.36849        -7.47750
   C        2.95619        -1.51978        -7.80193
   N        2.50882        -2.74747        -7.53553
   C        3.49613        -3.58970        -7.85789
   C        4.68688        -2.85684        -8.32772
   C        5.77614        -3.79017        -8.67751
   O        6.88344        -3.52911        -9.08983
   C        5.16571        -5.10090        -8.39832
   C        3.78289        -4.93564        -7.89863
   N        3.21701        -6.13881        -7.65182
   C        4.13700        -7.02179        -7.96660
   C        5.37416        -6.44344        -8.44226
   C        4.34368        -1.53565        -8.33444
   C        5.16164        -0.42434        -8.71324
   C        4.75077         0.63475        -9.44768
   C        5.66056         1.67698        -9.76555
   C        5.61369         2.70264       -10.65701
   C        4.67510         3.18127       -11.65719
   C        3.31583         3.01613       -11.71746
   C        2.49206         3.58132       -12.71768
   N        1.75568         3.99782       -13.49320
   C        2.50104         2.33516       -10.79636
   N        1.75238         1.81372       -10.09728
   C        5.42975         4.02653       -12.58249
   C        6.73295         4.23969       -12.06563
   C        6.88391         3.47815       -10.82043
   O        7.83990         3.43860       -10.08007
   C        7.67019         5.01666       -12.70315
   C        7.31157         5.60559       -13.91846
   C        6.01554         5.37260       -14.43946
   C        5.06627         4.59177       -13.79106
   S        5.79616         6.18035       -15.95960
   C        7.40397         6.81300       -15.88351
   C        8.08188         6.44018       -14.77592
   H       -9.32185         8.70767        -2.76950
   H       -8.83125         8.47962        -7.75492
   H      -12.73678        11.27119        -5.44704
   H      -11.53065        10.34102        -3.32629
   H       -5.43093         4.74663        -5.66673
   H       -7.33733         2.21583         2.41978
   H       -5.16939         0.77269         1.70042
   H       -3.35108         3.92436        -5.10030
   H       -3.09147         1.23546        -3.64233
   H        0.75708        -1.51468        -6.50419
   H        2.58141         0.60067        -7.76251
   H        3.93654        -8.07386        -7.86025
   H        6.24212        -6.99165        -8.75085
   H        6.20712        -0.50517        -8.43787
   H        3.74316         0.65769        -9.82789
   H        6.60924         1.62788        -9.23440
   H        8.65090         5.15945       -12.27664
   H        4.09947         4.43929       -14.24025
   H        7.74825         7.43494       -16.68691
   H        9.09224         6.73641       -14.55929
*
