# ORCA input file
# SCF done       -250.407319769299          0.000637671671
! CAM-B3LYP def2-SVP def2/J RIJCOSX Grid4 TightSCF
%maxcore 5000
%tddft
    Mode sTDDFT
    Ethresh 5.0
    maxcore 5000
end

%pal
  nprocs 6
  end
* xyz 0 1
   C        4.04749        -4.16322        -4.11081
   C        3.56355        -5.36551        -4.54572
   F        2.38791        -5.81772        -4.06944
   C        4.24731        -6.15858        -5.47659
   C        5.44359        -5.71615        -5.96941
   C        5.99039        -4.48497        -5.55411
   C        5.27757        -3.69183        -4.60858
   C        5.80198        -2.44848        -4.18238
   C        7.00184        -2.02307        -4.68114
   C        7.71892        -2.82762        -5.61274
   C        7.23157        -4.02433        -6.05011
   C        8.99418        -2.16152        -5.94898
   O        9.83216        -2.51353        -6.74640
   C        9.06522        -0.98613        -5.03972
   C        7.76303        -0.79556        -4.45672
   C        7.22395         0.39779        -4.04102
   C        7.89803         1.62699        -4.17320
   N        8.40624         2.64699        -4.31785
   C        5.91304         0.53643        -3.54846
   N        4.86268         0.69514        -3.11189
   C       10.29301        -0.42111        -4.81779
   C       10.78389         0.32573        -3.74194
   S        9.86803         0.66404        -2.30478
   C       11.13762         1.55572        -1.57128
   C       12.25451         1.63000        -2.42166
   C       12.07946         0.87235        -3.61880
   C       13.15213         0.79584        -4.53593
   C       13.22158        -0.16007        -5.66223
   O       13.33032         0.08770        -6.82781
   C       13.44313        -1.63057        -5.15926
   F       12.72560        -1.95092        -4.07100
   F       13.20473        -2.54664        -6.08715
   F       14.73719        -1.74624        -4.79799
   C       14.27497         1.57049        -4.33006
   C       14.39082         2.39252        -3.20112
   C       13.41313         2.41004        -2.24387
   C       10.97244         2.08404        -0.24591
   C       12.03142         2.13117         0.63494
   C       11.83470         2.61658         1.94064
   C       12.71944         2.74021         3.00424
   C       14.17479         2.42662         2.97464
   C       15.01571         3.70355         3.18158
   N       16.30488         3.53275         2.54319
   C       14.55042         1.32516         3.98123
   N       15.90736         0.86013         3.73768
   C       11.96117         3.28236         4.10933
   C       12.30842         3.57232         5.37652
   C       11.30891         4.09243         6.36019
   C        9.95669         4.37200         5.79168
   C        9.62114         4.05742         4.52805
   C       10.57878         3.49204         3.65234
   C       10.51072         3.07513         2.33941
   C        9.44212         3.00327         1.41457
   C        9.66688         2.51047         0.17204
   C       11.92077         5.24477         7.10987
   C       11.55255         6.52296         6.98594
   C       12.15045         7.58462         7.75401
   S       11.15579         8.81640         8.42517
   C       12.43422         9.45285         9.41450
   C       13.62061         8.72974         9.19236
   C       13.46789         7.71663         8.19666
   C       14.61129         6.98350         7.77799
   C       14.64848         6.16449         6.56461
   O       15.12529         5.06314         6.45963
   C       14.20409         6.89158         5.25215
   F       13.75319         8.13388         5.43533
   F       15.26948         6.97860         4.44279
   F       13.25729         6.22341         4.58133
   C       15.79614         7.14129         8.46778
   C       15.91454         8.09210         9.49135
   C       14.86449         8.90704         9.82350
   C       12.23377        10.43642        10.39993
   C       11.21215        11.32666        10.56240
   C       10.95971        11.89638        11.91386
   O       11.70099        11.84297        12.86938
   C        9.60188        12.46835        11.84231
   C        8.84225        13.00871        12.83938
   C        7.54226        13.47481        12.54012
   C        7.05085        13.36777        11.20610
   C        5.75157        13.82760        10.91745
   C        4.99274        14.36768        11.91850
   C        5.45829        14.48357        13.23539
   C        6.71713        14.04121        13.53326
   F        3.75159        14.80691        11.64470
   C        7.86356        12.81183        10.19031
   C        9.12111        12.37424        10.50361
   C       10.17976        11.80620         9.67397
   C       10.29693        11.96342         8.31616
   C       11.49076        11.68012         7.62299
   N       12.47513        11.50072         7.06020
   C        9.29144        12.51829         7.50097
   N        8.49253        12.94719         6.79719
   H        3.49157        -3.57688        -3.39591
   H        3.81643        -7.09848        -5.78322
   H        5.98945        -6.30964        -6.68736
   H        5.24653        -1.86912        -3.46163
   H        7.78561        -4.61496        -6.76409
   H       11.02879        -0.69025        -5.57159
   H       15.08360         1.52402        -5.04335
   H       15.27318         3.00208        -3.08762
   H       13.50594         3.04075        -1.37446
   H       12.99526         1.74040         0.34732
   H       14.42734         2.05641         1.97585
   H       15.08377         3.91882         4.25740
   H       14.50853         4.54596         2.69960
   H       16.78211         2.74598         2.97453
   H       16.87075         4.36555         2.66017
   H       13.79783         0.51961         3.91160
   H       14.52046         1.72169         4.99861
   H       15.96782         0.42112         2.82420
   H       16.17442         0.17030         4.43167
   H       13.31496         3.44026         5.74460
   H       11.18343         3.28462         7.10462
   H        9.23824         4.80239         6.47282
   H        8.62249         4.24242         4.16063
   H        8.45758         3.33457         1.70804
   H        8.86539         2.44996        -0.54961
   H       12.71619         4.97406         7.79186
   H       10.71694         6.79206         6.35470
   H       16.65891         6.56836         8.16403
   H       16.86477         8.20341         9.98951
   H       14.98468         9.67980        10.56580
   H       12.95064        10.42920        11.21614
   H        9.22770        13.08082        13.84536
   H        5.36209        13.75799         9.91381
   H        4.81454        14.91843        13.98337
   H        7.09781        14.12022        14.54044
   H        7.46728        12.73712         9.18994
*
