# ORCA input file
# SCF done       -257.408897899393          0.000951094814
! CAM-B3LYP def2-SVP def2/J RIJCOSX Grid4 TightSCF
%maxcore 5000
%tddft
    Mode sTDDFT
    Ethresh 5.0
    maxcore 5000
end

%pal
  nprocs 6
  end
* xyz 0 1
   C       11.48421        15.96185         6.88436
   C       12.06532        17.19160         7.02081
   F       13.39643        17.27883         7.19916
   C       11.32591        18.38149         6.98300
   C        9.97198        18.31277         6.80322
   C        9.32049        17.07150         6.65856
   C       10.09038        15.87182         6.69850
   C        9.46086        14.61517         6.55507
   C        8.10141        14.55724         6.37924
   C        7.33833        15.76074         6.34709
   C        7.92163        16.98768         6.47936
   C        5.91237        15.43554         6.16731
   O        4.98853        16.21575         6.07943
   C        5.84070        13.95037         6.17575
   C        7.20156        13.42921         6.20988
   C        7.56871        12.11880         6.03172
   C        6.67233        11.06353         5.77670
   N        5.99849        10.16109         5.54506
   C        8.90302        11.66453         6.04519
   N        9.96799        11.23538         6.05058
   C        4.70318        13.23588         6.29658
   C        3.32610        13.78802         6.21934
   C        2.27044        12.81069         6.76492
   C        1.58619        12.02208         5.64533
   C        2.60768        11.68355         4.54003
   C        2.95454        12.98741         3.81071
   C        2.97031        14.18306         4.77119
   N        2.24775        10.59131         3.66862
   C        1.31764        10.77123         2.57715
   C       -0.13604        11.08277         2.95688
   C        2.21246         9.28609         4.31394
   C        2.13254         9.34755         5.83880
   S        0.80067        10.50603         6.31394
   C        1.90801         7.95984         6.41376
   C        3.10861         7.08725         6.05354
   C        3.30037         7.03483         4.54117
   C        3.45798         8.43941         3.94404
   C        3.64054         8.38033         2.45282
   C        2.70510         7.78595         1.65486
   C        2.88446         7.74924         0.25348
   C        2.08985         7.22864        -0.75346
   C        0.76763         6.53648        -0.65864
   C        0.94865         5.12997        -0.05945
   N       -0.22512         4.31206        -0.32529
   C       -0.30386         7.38129         0.07482
   N       -0.30008         7.21291         1.52160
   C        2.80163         7.43846        -1.99399
   C        2.51098         7.08140        -3.25737
   C        3.43488         7.37430        -4.39008
   C        4.67461         8.11306        -4.00368
   C        4.95037         8.46793        -2.73363
   C        4.05668         8.14070        -1.68862
   C        4.09105         8.32939        -0.31871
   C        5.03427         8.94319         0.53471
   C        4.80374         8.96748         1.87548
   C        2.66677         8.12911        -5.45390
   C        2.14867         7.56640        -6.53189
   C        1.33454         8.28682        -7.56355
   C       -0.16023         8.04438        -7.28772
   C       -0.99318         8.70408        -8.37545
   C       -0.63443         8.08185        -9.73179
   C        0.81733         8.45671       -10.03628
   C        1.70953         7.81705        -8.97451
   N       -1.57490         8.38616       -10.78739
   C       -1.70349         9.78829       -11.15474
   C       -1.93734         9.96592       -12.65136
   C       -2.83528         7.68942       -10.65356
   C       -3.17069         7.23788        -9.22708
   S       -2.79848         8.59116        -8.05644
   C       -4.62743         6.81395        -9.14113
   C       -4.84895         5.61300       -10.05878
   C       -4.40654         5.92151       -11.48659
   C       -2.94921         6.38743       -11.53210
   C       -2.50033         6.67662       -12.90279
   C       -1.20697         6.62805       -13.29448
   C       -0.09500         6.08550       -12.47554
   O       -0.14934         5.57456       -11.37394
   C        1.11596         6.21758       -13.30545
   C        2.40073         5.87632       -12.99456
   C        3.41741         6.06462       -13.95657
   C        3.07539         6.60233       -15.23155
   C        4.09014         6.77720       -16.19321
   C        5.37528         6.42931       -15.88357
   C        5.73153         5.90171       -14.63492
   C        4.75942         5.72603       -13.68965
   F        6.34590         6.59370       -16.80120
   C        1.73699         6.95127       -15.52332
   C        0.76701         6.76490       -14.57218
   C       -0.66552         7.03209       -14.58679
   C       -1.35670         7.59580       -15.62694
   C       -2.73517         7.89397       -15.63187
   N       -3.84493         8.17939       -15.71492
   C       -0.77240         7.97193       -16.85469
   N       -0.35908         8.29802       -17.87525
   H       12.08545        15.06673         6.91717
   H       11.83933        19.32299         7.09687
   H        9.38065        19.21552         6.77140
   H       10.06814        13.72506         6.59578
   H        7.32178        17.88510         6.44968
   H        4.79282        12.17583         6.49031
   H        3.31018        14.71907         6.79931
   H        1.51029        13.35633         7.32632
   H        2.73931        12.11069         7.46091
   H        0.75815        12.59718         5.22897
   H        3.52671        11.34820         5.03273
   H        2.22322        13.19245         3.03038
   H        3.92612        12.86202         3.33005
   H        1.98301        14.64662         4.80296
   H        3.67150        14.93862         4.41922
   H        1.70100        11.55746         1.92170
   H        1.34278         9.84431         2.00009
   H       -0.24404        12.10299         3.31620
   H       -0.48149        10.40810         3.73692
   H       -0.77349        10.96447         2.08328
   H        1.32198         8.75440         3.95982
   H        3.05544         9.74800         6.26557
   H        0.99087         7.53231         6.00271
   H        1.79198         8.02291         7.49768
   H        4.00600         7.50104         6.51841
   H        2.96247         6.07839         6.44434
   H        2.43850         6.54268         4.08617
   H        4.18677         6.44422         4.30109
   H        4.33467         8.91685         4.38862
   H        1.80446         7.35486         2.06228
   H        0.39449         6.39042        -1.67688
   H        1.20249         5.21996         1.00647
   H        1.79544         4.65447        -0.56322
   H       -1.03059         4.66367         0.18109
   H       -0.06559         3.35703        -0.02464
   H       -1.28516         7.14077        -0.36502
   H       -0.09847         8.43460        -0.13448
   H       -0.72637         6.32973         1.78110
   H       -0.84124         7.95175         1.95629
   H        1.59706         6.56320        -3.51527
   H        3.72587         6.40710        -4.82834
   H        5.34860         8.35361        -4.81228
   H        5.86186         8.99791        -2.49635
   H        5.92683         9.38445         0.11470
   H        5.51651         9.43519         2.53966
   H        2.53967         9.18507        -5.26030
   H        2.27118         6.50391        -6.70142
   H        1.52156         9.36335        -7.48447
   H       -0.42254         8.45285        -6.30982
   H       -0.36370         6.97101        -7.27044
   H       -0.79325         9.77922        -8.39133
   H       -0.64412         6.99058        -9.63898
   H        0.96020         9.53873       -10.02438
   H        1.08560         8.08922       -11.02771
   H        2.75486         8.06666        -9.16942
   H        1.60516         6.73155        -9.03561
   H       -2.51910        10.27344       -10.59712
   H       -0.77630        10.29666       -10.89265
   H       -2.85483         9.47954       -12.97151
   H       -1.10740         9.54183       -13.21078
   H       -2.01078        11.02476       -12.88647
   H       -3.62606         8.36840       -10.99032
   H       -2.54075         6.39729        -8.92594
   H       -5.27004         7.64475        -9.43967
   H       -4.87526         6.55447        -8.11030
   H       -4.27696         4.76269        -9.68009
   H       -5.90392         5.33491       -10.05222
   H       -5.04767         6.69839       -11.91051
   H       -4.51729         5.02633       -12.10217
   H       -2.29546         5.63635       -11.08300
   H       -3.26007         7.01108       -13.59531
   H        2.63866         5.46449       -12.02495
   H        3.85211         7.18089       -17.16492
   H        6.76233         5.64557       -14.44804
   H        5.00911         5.32008       -12.72077
   H        1.51238         7.35409       -16.49761
*
