# ORCA input file
# SCF done       -196.913131995091          0.000513382000
! CAM-B3LYP def2-SVP def2/J RIJCOSX Grid4 TightSCF
%maxcore 5000
%tddft
    Mode sTDDFT
    Ethresh 5.0
    maxcore 5000
end

%pal
  nprocs 6
  end
* xyz 0 1
   C       -4.04131       -13.93082         8.62869
   C       -4.73744       -15.03593         8.16415
   C       -5.19392       -15.09736         6.85372
   C       -4.95986       -14.05851         5.96520
   C       -4.26189       -12.95014         6.41555
   C       -3.80606       -12.88054         7.75345
   C       -3.13539       -11.60682         7.95627
   C       -2.40543       -11.23489         9.04973
   C       -2.21070       -12.05220        10.18629
   N       -2.01700       -12.66466        11.13618
   C       -1.70246       -10.01963         9.17723
   N       -1.09445        -9.06129         9.34849
   C       -3.38971       -10.80727         6.75500
   C       -3.85205       -11.73968         5.72232
   C       -3.69470       -11.59684         4.37707
   C       -3.04734       -10.49446         3.77351
   N       -2.45568        -9.66535         3.24648
   C       -4.05617       -12.58998         3.43998
   N       -4.32331       -13.37415         2.64728
   C       -3.36950        -9.44870         6.71649
   C       -3.99172        -8.62938         5.72974
   N       -4.91892        -9.10122         4.91214
   C       -5.35798        -8.04232         4.19989
   C       -4.68181        -6.80789         4.60645
   C       -5.16096        -5.67380         3.79826
   O       -4.85695        -4.50496         3.87660
   C       -6.11854        -6.31700         2.87306
   C       -6.22012        -7.76381         3.16903
   N       -7.08942        -8.36797         2.32174
   C       -7.51033        -7.41522         1.52912
   C       -6.93684        -6.10793         1.81394
   C       -3.78313        -7.16832         5.58528
   C       -2.82168        -6.39956         6.29274
   C       -2.78657        -5.04229         6.21841
   C       -1.85306        -4.20037         6.86947
   S       -2.03488        -2.48286         6.74850
   C       -0.62043        -2.20194         7.72853
   C       -0.01993        -3.41396         8.10162
   C       -0.74339        -4.53905         7.65579
   O       -0.46893        -5.82892         7.96712
   C        0.10095        -6.04532         9.25594
   C        1.61489        -5.83447         9.28342
   C        1.99739        -4.57840         8.50213
   O        1.14993        -3.46658         8.78018
   C       -0.37043        -0.83150         7.95809
   N       -1.27192         0.00320         7.43122
   C       -0.88522         1.24161         7.74992
   C        0.37246         1.22317         8.51043
   C        0.78047         2.59609         8.86784
   O        1.78479         2.95913         9.44721
   C       -0.31669         3.40687         8.33063
   C       -1.30447         2.55115         7.64001
   N       -2.31843         3.29385         7.14953
   C       -2.03698         4.53244         7.49338
   C       -0.80736         4.67289         8.23663
   C        0.70775        -0.10213         8.67022
   C        1.81354        -0.66403         9.35572
   C        2.80524         0.07942         9.91205
   C        3.89858        -0.53803        10.55772
   C        4.85125         0.09221        11.30639
   C        6.16147        -0.45794        11.62697
   C        6.55383        -1.76718        11.52100
   C        5.73648        -2.83367        11.09232
   N        5.13490        -3.74864        10.74310
   C        7.84486        -2.23521        11.84639
   N        8.87115        -2.68520        12.09435
   C        6.99192         0.66215        12.04618
   C        6.19816         1.83254        12.09317
   C        6.76013         3.05200        12.43205
   C        8.11432         3.09827        12.72800
   C        8.89240         1.94951        12.69458
   C        8.34242         0.72294        12.35471
   C        4.82350         1.47024        11.78165
   C        3.70592         2.19215        12.09934
   C        3.74167         3.51748        12.58353
   N        3.72150         4.59454        12.97801
   C        2.39781         1.65794        12.13335
   N        1.33728         1.24511        12.27948
   H       -3.70333       -13.89463         9.65143
   H       -4.93156       -15.85779         8.83593
   H       -5.74193       -15.96519         6.52056
   H       -5.32787       -14.11131         4.95357
   H       -2.94515        -8.91586         7.55668
   H       -8.22363        -7.62957         0.75233
   H       -7.14944        -5.20506         1.27679
   H       -2.09993        -6.92427         6.90045
   H       -3.52715        -4.52735         5.61912
   H       -0.38496        -5.37834         9.97841
   H       -0.14618        -7.07849         9.50345
   H        2.12828        -6.68310         8.83256
   H        1.93237        -5.74664        10.32192
   H        3.00037        -4.25017         8.78532
   H        1.97909        -4.78104         7.42487
   H       -2.69878         5.33427         7.21575
   H       -0.40417         5.59189         8.61338
   H        1.83862        -1.73576         9.46079
   H        2.78309         1.15635         9.82370
   H        4.02068        -1.59532        10.36718
   H        6.16658         3.95141        12.45510
   H        8.56735         4.04291        12.98730
   H        9.94353         2.00908        12.93202
   H        8.96251        -0.15809        12.32913
*
