# ORCA input file
# SCF done       -206.504258989319          0.000435210047
! CAM-B3LYP def2-SVP def2/J RIJCOSX Grid4 TightSCF
%maxcore 5000
%tddft
    Mode sTDDFT
    Ethresh 5.0
    maxcore 5000
end

%pal
  nprocs 6
  end
* xyz 0 1
   C       -8.34548       -17.71227        -3.93552
   C       -7.19014       -18.28648        -4.43899
   C       -6.07256       -17.51901        -4.72960
   C       -6.08510       -16.14761        -4.51816
   C       -7.23464       -15.57396        -4.02134
   C       -8.36950       -16.33986        -3.72312
   C       -9.41995       -15.46433        -3.21268
   C      -10.64358       -15.87894        -2.73750
   C      -11.08701       -17.21481        -2.75156
   N      -11.52355       -18.27780        -2.74539
   C      -11.60873       -15.04837        -2.13479
   N      -12.43336       -14.44906        -1.60416
   C       -8.93512       -14.11101        -3.28913
   C       -7.47195       -14.13639        -3.66220
   C       -6.57633       -13.73588        -2.44504
   C       -6.38552       -14.86932        -1.56264
   N       -6.24211       -15.76492        -0.86982
   C       -5.29459       -13.25325        -2.90720
   N       -4.30330       -12.85176        -3.30857
   C       -9.68656       -12.97978        -3.14755
   C       -9.31473       -11.63625        -3.30338
   S       -7.69859       -11.08125        -3.69662
   C       -8.13774        -9.42531        -3.68191
   C       -9.53302        -9.27330        -3.40005
   N      -10.02213        -8.05694        -3.35145
   N      -11.27635        -7.83926        -3.12242
   C      -10.19987       -10.54605        -3.19016
   S      -11.83716       -10.73314        -2.84628
   C       -7.22256        -8.39354        -3.91387
   C       -5.90038        -8.61553        -4.17871
   C       -4.88654        -7.64629        -4.41079
   C       -3.60642        -8.09594        -4.70451
   C       -2.56464        -7.18891        -4.93965
   C       -1.21821        -7.37925        -5.24413
   C       -0.48111        -8.65696        -5.44833
   C       -0.36674        -9.43931        -4.12145
   N        0.78570       -10.31231        -4.18627
   C       -1.11688        -9.52023        -6.55495
   N       -0.23452       -10.61811        -6.91346
   C       -0.62201        -6.06443        -5.31500
   C        0.65056        -5.67747        -5.52870
   C        1.03618        -4.24106        -5.55568
   C       -0.08753        -3.28765        -5.27618
   C       -1.35131        -3.69006        -5.06248
   C       -1.67445        -5.07005        -5.06870
   C       -2.84497        -5.75902        -4.84305
   C       -4.15973        -5.32333        -4.54682
   C       -5.14196        -6.23319        -4.34512
   C        1.65656        -3.82938        -6.87201
   C        1.67754        -4.58047        -7.95966
   C        2.23235        -4.13698        -9.27786
   S        3.66955        -5.19330        -9.70826
   C        2.66682        -6.28814       -10.65540
   C        1.38265        -5.67069       -10.97378
   N        0.56329        -6.28643       -11.78540
   N       -0.58957        -5.79265       -12.14852
   C        1.19442        -4.40516       -10.32245
   S       -0.05008        -3.34095       -10.51090
   C        3.14315        -7.51544       -10.97223
   C        2.43279        -8.55145       -11.63681
   C        2.92708        -9.80056       -11.76552
   C        2.15354       -10.90519       -12.26716
   C        2.64045       -11.90326       -13.20050
   C        3.85183       -11.88038       -13.83459
   C        4.80062       -10.84549       -13.68489
   N        5.60463       -10.02871       -13.62473
   C        4.29193       -12.87278       -14.73579
   N        4.70292       -13.65147       -15.47166
   C        1.56642       -12.87583       -13.38525
   C        0.47161       -12.45975       -12.59353
   C       -0.70518       -13.18033       -12.60114
   C       -0.77848       -14.32701       -13.38931
   C        0.29657       -14.73890       -14.15330
   C        1.48497       -14.01228       -14.16297
   C        0.86738       -11.24001       -11.89080
   C        0.08119       -10.58090       -10.88148
   C       -1.11489       -11.14047       -10.36945
   N       -2.08141       -11.54232        -9.89964
   C        0.32621        -9.43015       -10.25718
   N        0.42324        -8.55365        -9.44192
   H       -9.20207       -18.32737        -3.71588
   H       -7.16143       -19.35259        -4.60541
   H       -5.18343       -17.99053        -5.11977
   H       -5.21466       -15.54499        -4.73467
   H      -10.73648       -13.09980        -2.90962
   H       -7.05640       -12.93269        -1.87005
   H       -7.24756       -13.46043        -4.49459
   H      -11.55366        -6.87098        -3.06997
   H      -11.92322        -8.62051        -2.94397
   H       -7.63676        -7.39772        -3.86511
   H       -5.57211        -9.64909        -4.22014
   H       -3.41977        -9.15836        -4.73765
   H        0.54406        -8.43020        -5.75735
   H       -1.31566        -9.96575        -3.93447
   H       -0.21079        -8.73075        -3.29967
   H        0.67427       -10.93869        -4.97969
   H        0.86347       -10.86548        -3.34040
   H       -1.36263        -8.86813        -7.41236
   H       -2.05010        -9.95866        -6.19885
   H        0.59511       -10.26443        -7.37963
   H       -0.70702       -11.25161        -7.54924
   H        1.44810        -6.39304        -5.67718
   H        1.81379        -4.09164        -4.78837
   H        0.17271        -2.24018        -5.27227
   H       -2.13284        -2.96988        -4.86936
   H       -4.36318        -4.26452        -4.48258
   H       -6.14263        -5.90232        -4.11743
   H        2.05493        -2.82430        -6.89349
   H        1.28184        -5.58741        -7.95177
   H        2.54593        -3.09364        -9.24790
   H        0.10583        -7.60148        -9.52142
   H       -1.08095        -6.32354       -12.85004
   H       -0.86278        -4.83729       -11.91696
   H        4.13991        -7.75796       -10.62785
   H        1.46391        -8.30610       -12.04591
   H        3.94553       -10.00695       -11.46257
   H       -1.55961       -12.87521       -12.01941
   H       -1.69389       -14.89899       -13.39947
   H        0.21932       -15.63220       -14.75366
   H        2.31531       -14.34278       -14.76596
*
