# ORCA input file
# SCF done       -233.156689698212          0.000841320590
! CAM-B3LYP def2-SVP def2/J RIJCOSX Grid4 TightSCF
%maxcore 5000
%tddft
    Mode sTDDFT
    Ethresh 5.0
    maxcore 5000
end

%pal
  nprocs 6
  end
* xyz 0 1
   C        2.27203        11.27020       -12.14851
   C        1.51881        11.90413       -13.10529
   C        1.53996        11.56919       -14.47400
   N        1.48661        11.31911       -15.59333
   C        0.70410        13.02500       -12.84888
   N        0.05090        13.95800       -12.70671
   C        3.33782        10.30986       -12.41891
   C        4.16951        10.22027       -11.26491
   C        5.28409         9.43322       -11.24274
   C        5.61859         8.67914       -12.39056
   C        4.78138         8.75030       -13.54098
   C        3.63508         9.57857       -13.53675
   C        5.12444         7.99209       -14.67849
   C        6.24342         7.20449       -14.68363
   C        7.06810         7.13613       -13.55106
   C        6.76185         7.85711       -12.42878
   C        3.61682        11.07830       -10.20150
   O        4.07241        11.28908        -9.10048
   C        2.33293        11.60736       -10.74683
   C        1.47419        12.24517        -9.90388
   C        0.09359        12.52799       -10.03491
   S       -0.54049        13.89668        -9.15065
   C       -2.11681        13.57799        -9.71499
   C       -2.18349        12.46096       -10.49970
   C       -0.92493        11.84979       -10.68884
   C       -0.79478        10.56351       -11.42924
   C       -2.11984         9.80476       -11.39650
   C       -3.22927        10.69269       -11.94876
   C       -3.46853        11.91698       -11.04987
   C       -4.38921        11.55936        -9.89037
   O       -5.54306        11.88620        -9.80964
   O       -3.74308        10.83683        -8.96210
   C       -4.40632        10.51298        -7.79944
   C       -3.83150         9.71666        -6.89880
   C       -4.38837         9.35843        -5.60862
   C       -5.42444        10.04959        -5.03277
   C       -5.88437         9.69939        -3.74501
   C       -6.86260        10.26789        -2.94251
   C       -7.71936        11.43335        -3.30902
   C       -9.15182        11.01336        -3.70177
   N       -9.82818        10.33601        -2.60735
   C       -7.77845        12.52014        -2.22235
   N       -8.09925        13.79686        -2.84072
   C       -6.86120         9.52683        -1.70257
   C       -7.57821         9.67322        -0.57223
   C       -7.34467         8.80775         0.61904
   C       -6.35601         7.70909         0.41201
   C       -5.64581         7.57673        -0.72384
   C       -5.84397         8.46988        -1.80327
   C       -5.25583         8.58595        -3.04711
   C       -4.20690         7.87652        -3.67599
   C       -3.78724         8.26148        -4.90747
   C       -8.67412         8.36655         1.17458
   C       -9.10834         7.10911         1.24233
   C      -10.37661         6.73325         1.80506
   S      -11.50048         7.94332         2.37075
   C      -12.61421         6.73750         2.85874
   C      -12.16103         5.47868         2.60101
   C      -10.87509         5.46808         2.00373
   C      -10.19647         4.18692         1.63394
   C      -10.71736         3.03968         2.49730
   C      -12.23939         2.96810         2.43648
   C      -12.91087         4.23385         2.98792
   C      -13.00959         4.26908         4.50212
   O      -14.03066         4.36413         5.12035
   O      -11.78146         4.20137         5.07834
   C      -11.57506         4.50616         6.38572
   C      -12.24137         5.42091         7.10793
   C      -11.86775         5.69026         8.45539
   C      -12.38189         6.69426         9.21459
   C      -12.05926         6.99304        10.60146
   C      -11.10454         6.38461        11.37428
   C      -10.83393         6.72838        12.71577
   N      -10.56157         6.95424        13.80813
   C      -10.24132         5.35115        10.95511
   N       -9.49593         4.51707        10.69343
   C      -12.92132         8.08709        11.03145
   C      -13.72510         8.49788         9.92983
   C      -13.40318         7.67506         8.75138
   O      -13.86426         7.79535         7.63701
   C      -14.62840         9.51593        10.03436
   C      -14.77595        10.18271        11.27102
   C      -13.97896         9.77593        12.37986
   C      -13.05089         8.71912        12.24097
   C      -14.13391        10.44764        13.60989
   C      -15.03135        11.47220        13.73977
   C      -15.81532        11.87196        12.64710
   C      -15.69035        11.24093        11.43914
   H        5.90593         9.38732       -10.36106
   H        3.01680         9.60984       -14.42030
   H        4.48819         8.05098       -15.54942
   H        6.49984         6.63060       -15.56152
   H        7.94738         6.50982       -13.57225
   H        7.39333         7.80854       -11.55370
   H        1.91888        12.54190        -8.95731
   H       -2.92355        14.23114        -9.44431
   H        0.01580         9.96345       -11.00663
   H       -0.53758        10.76594       -12.47635
   H       -2.35278         9.51484       -10.37123
   H       -2.03695         8.89881       -11.99897
   H       -4.15989        10.13018       -12.04365
   H       -2.94583        11.04219       -12.94381
   H       -3.99006        12.69078       -11.62241
   H       -5.38840        10.95415        -7.70425
   H       -2.86087         9.30077        -7.13572
   H       -5.87315        10.88617        -5.54579
   H       -7.28313        11.89583        -4.20096
   H       -9.09699        10.40283        -4.61808
   H       -9.70387        11.92863        -3.92592
   H       -9.45571         9.39895        -2.49287
   H      -10.81842        10.25352        -2.80696
   H       -6.82507        12.53194        -1.66698
   H       -8.58570        12.28610        -1.52753
   H       -7.33443        14.10532        -3.43236
   H       -8.24766        14.50690        -2.13246
   H       -8.35491        10.41705        -0.48505
   H       -6.91633         9.47938         1.38681
   H       -6.20189         7.04528         1.24940
   H       -4.91572         6.78652        -0.82775
   H       -3.74094         7.04719        -3.16382
   H       -2.97718         7.73657        -5.39340
   H       -9.31087         9.16907         1.52339
   H       -8.49490         6.29756         0.87698
   H      -13.54255         7.02345         3.31266
   H       -9.11585         4.28066         1.75322
   H      -10.39513         3.97011         0.57871
   H      -10.39541         3.18625         3.52795
   H      -10.29753         2.09694         2.14167
   H      -12.60008         2.10002         2.99128
   H      -12.54602         2.84999         1.39470
   H      -13.94222         4.28802         2.62354
   H      -10.72273         3.96502         6.78063
   H      -13.06140         5.97988         6.68309
   H      -11.12180         5.03332         8.88339
   H      -15.22336         9.80897         9.18203
   H      -12.46498         8.43493        13.10043
   H      -13.52769        10.13649        14.44800
   H      -15.14224        11.98077        14.68575
   H      -16.51864        12.68238        12.76746
   H      -16.29117        11.54440        10.59426
*
