# ORCA input file
# SCF done       -219.098731247092          0.000512576272
! CAM-B3LYP def2-SVP def2/J RIJCOSX Grid4 TightSCF
%maxcore 5000
%tddft
    Mode sTDDFT
    Ethresh 5.0
    maxcore 5000
end

%pal
  nprocs 6
  end
* xyz 0 1
   C        4.02935         1.22082        -5.26346
   C        3.56259         1.52169        -6.51542
   C        4.01888         0.89502        -7.69324
   N        4.37204         0.42380        -8.67816
   C        2.51090         2.42923        -6.75324
   N        1.62369         3.12176        -6.97996
   C        4.92155         0.11761        -4.92815
   C        4.79899        -0.15981        -3.53393
   C        5.49170        -1.17639        -2.94179
   C        6.36108        -1.96688        -3.72639
   C        6.50206        -1.68281        -5.11606
   C        5.76657        -0.62892        -5.70494
   C        7.37981        -2.47363        -5.88509
   C        8.08221        -3.49869        -5.31216
   C        7.94080        -3.77929        -3.94483
   C        7.09856        -3.02996        -3.16893
   C        3.86789         0.80428        -2.92438
   O        3.47654         0.85504        -1.78092
   C        3.54097         1.77054        -4.01319
   C        2.97654         2.96363        -3.70509
   C        2.93027         4.14496        -4.50343
   C        3.90944         4.60360        -5.34098
   C        3.54075         5.92008        -5.80018
   C        4.29594         6.70308        -6.68079
   N        4.92245         7.36330        -7.38083
   C        2.34734         6.27934        -5.21860
   C        1.90854         5.20073        -4.39412
   C        0.71588         5.08670        -3.70386
   C       -0.18016         6.18229        -3.26258
   C       -1.31924         5.58279        -2.72754
   C       -1.16377         4.17751        -2.79824
   C        0.07670         3.87522        -3.35336
   C       -2.11826         3.24204        -2.36826
   N       -2.89982         2.48265        -2.01047
   C        0.16096         7.53230        -3.25864
   C       -0.64130         8.57482        -2.83164
   C       -0.23929         9.89976        -2.88065
   S        1.29282        10.38109        -3.56217
   C        1.04038        12.06902        -3.19367
   C       -0.24956        12.25600        -2.60295
   C       -0.96239        11.04343        -2.43552
   C       -2.24666        11.08110        -1.89753
   C       -2.85315        12.28273        -1.58245
   C       -4.24861        12.18094        -1.02642
   O       -4.76401        11.10682        -0.85750
   O       -4.88047        13.30876        -0.73055
   C       -2.16181        13.50285        -1.81195
   O       -2.78315        14.66626        -1.56766
   C       -0.85704        13.46737        -2.28960
   C        1.95876        13.05266        -3.49648
   C        3.06779        12.86890        -4.31548
   C        3.94482        13.82338        -4.80370
   C        5.10934        13.47453        -5.51291
   C        5.88217        14.62256        -5.69906
   C        7.10131        14.68766        -6.38933
   N        8.09614        14.74543        -6.95802
   C        5.22935        15.72305        -5.09979
   C        4.01066        15.29651        -4.58428
   C        3.02803        16.12381        -4.01402
   C        3.27058        17.30514        -3.16740
   C        2.03459        17.77345        -2.75043
   C        1.02890        16.95452        -3.32471
   C        1.63778        15.96458        -4.10825
   C       -0.31888        16.92289        -2.99344
   N       -1.39929        16.71869        -2.64508
   C        4.53677        17.74285        -2.72526
   C        4.75761        18.87274        -1.98660
   C        6.05058        19.23318        -1.57016
   C        6.35344        20.33716        -0.81390
   C        7.66683        20.74282        -0.35982
   C        8.85689        20.09368        -0.58329
   C       10.10638        20.54911        -0.11397
   N       11.15462        20.86133         0.23579
   C        9.01586        18.88734        -1.29488
   N        9.22735        17.90505        -1.85236
   C        7.51345        21.97974         0.40010
   C        6.13339        22.33028         0.42496
   C        5.35921        21.32482        -0.32210
   O        4.15590        21.31572        -0.48876
   C        5.68224        23.44445         1.07146
   C        6.60869        24.27702         1.73841
   C        7.99115        23.93394         1.71900
   C        8.42850        22.77365         1.03908
   C        8.90733        24.76931         2.38947
   C        8.48023        25.89012         3.04841
   C        7.11882        26.22724         3.06637
   C        6.20284        25.43791         2.42502
   H        5.37805        -1.37562        -1.88654
   H        5.89733        -0.42985        -6.75732
   H        7.48287        -2.25601        -6.93799
   H        8.75062        -4.09983        -5.91001
   H        8.50274        -4.59183        -3.50931
   H        6.98571        -3.24121        -2.11566
   H        2.59773         3.04782        -2.69040
   H        4.83232         4.11272        -5.59009
   H        1.78824         7.16227        -5.46032
   H       -2.16922         6.07904        -2.29916
   H        0.43194         2.88785        -3.57778
   H        1.15480         7.79308        -3.59634
   H       -1.62726         8.37133        -2.44144
   H       -2.81741        10.18085        -1.72920
   H       -4.34334        14.09872        -0.92962
   H       -2.28057        15.45733        -1.89956
   H       -0.33193        14.39705        -2.43626
   H        1.76981        14.03244        -3.08622
   H        3.27464        11.84980        -4.62838
   H        5.37534        12.48296        -5.82771
   H        5.57417        16.73802        -5.15956
   H        1.84775        18.58765        -2.07737
   H        1.12140        15.27209        -4.74727
   H        5.39040        17.12699        -2.98008
   H        3.93763        19.51851        -1.71402
   H        6.85645        18.57741        -1.87487
   H        4.62989        23.68714         1.07508
   H        9.48192        22.54387         1.04402
   H        9.95461        24.50562         2.37283
   H        9.18980        26.52326         3.55966
   H        6.79925        27.11520         3.59098
   H        5.15311        25.69240         2.43553
*
