# ORCA input file
# SCF done       -235.275959151469          0.000406255335
! CAM-B3LYP def2-SVP def2/J RIJCOSX Grid4 TightSCF
%maxcore 5000
%tddft
    Mode sTDDFT
    Ethresh 5.0
    maxcore 5000
end

%pal
  nprocs 6
  end
* xyz 0 1
   C      -10.98180        -3.61407        10.15489
   C      -11.16848        -2.27702        10.36632
   F      -11.68060        -1.84317        11.52615
   C      -10.82677        -1.33923         9.37159
   F      -11.02077        -0.03361         9.60603
   C      -10.30319        -1.75165         8.17851
   C      -10.09945        -3.12287         7.93009
   C      -10.44325        -4.07216         8.93554
   C      -10.24503        -5.45358         8.71045
   C       -9.72155        -5.87230         7.51549
   C       -9.39194        -4.91914         6.51475
   C       -9.56635        -3.57884         6.70408
   C       -8.87683        -5.61504         5.31695
   O       -8.47746        -5.06939         4.30954
   C       -8.97549        -7.06039         5.62133
   C       -9.40323        -7.20222         7.00393
   C       -9.43686        -8.35335         7.74805
   C       -9.03026        -9.63576         7.32080
   N       -8.69874       -10.70768         7.07458
   C       -9.84772        -8.40552         9.09701
   N      -10.17115        -8.51764        10.19286
   C       -8.81876        -8.12725         4.77496
   C       -8.39172        -8.21140         3.43691
   C       -7.91142        -7.27913         2.52916
   C       -7.56639        -7.82124         1.29422
   C       -7.11360        -6.99763         0.16566
   C       -6.00278        -6.15685         0.32223
   C       -5.58947        -5.35745        -0.73821
   C       -6.27860        -5.40287        -1.93512
   C       -7.38291        -6.21848        -2.10195
   C       -7.81422        -7.01477        -1.04824
   O       -8.90925        -7.82819        -1.09357
   C       -9.73758        -7.75974        -2.23228
   O       -5.38365        -6.22184         1.53057
   C       -4.30647        -5.35186         1.78453
   C       -7.76893        -9.20418         1.23297
   S       -8.43104        -9.80303         2.70912
   C       -7.43399       -10.09910         0.17081
   C       -6.43378        -9.85731        -0.71512
   C       -6.10414       -10.75998        -1.75729
   C       -6.87493       -11.83330        -2.06832
   C       -8.15450       -12.07647        -1.29396
   C       -8.14677       -11.44103         0.11366
   N       -9.47551       -11.28180         0.65553
   C      -10.43459       -11.09886        -0.13577
   C      -10.27599       -11.17093        -1.59996
   N       -9.23879       -11.62712        -2.14070
   F      -11.28542       -10.75988        -2.36262
   F      -11.65340       -10.89685         0.34948
   C       -6.60565       -12.68698        -3.17692
   C       -7.44112       -13.61580        -3.76267
   C       -6.87682       -14.28533        -4.85294
   C       -7.62113       -15.26141        -5.65954
   C       -8.81826       -14.83211        -6.26428
   C       -9.52921       -15.70333        -7.08076
   C       -9.06497       -16.99021        -7.29019
   C       -7.90900       -17.43202        -6.67869
   C       -7.18624       -16.57287        -5.85975
   O       -6.01932       -17.04764        -5.29818
   C       -5.99986       -17.14434        -3.89158
   O       -9.17410       -13.55140        -6.00438
   C      -10.29775       -13.00475        -6.65222
   C       -5.58121       -13.85284        -5.14387
   S       -5.07695       -12.63249        -4.00091
   C       -4.73652       -14.34977        -6.15809
   C       -3.57302       -13.82946        -6.64374
   C       -2.59784       -14.72786        -7.31650
   O       -2.80076       -15.83925        -7.74543
   C       -1.31635       -13.98714        -7.29163
   C       -0.07226       -14.41275        -7.65607
   C        1.02385       -13.53186        -7.51421
   C        0.80741       -12.22311        -6.99320
   C        1.90725       -11.35415        -6.84680
   C        3.16139       -11.76337        -7.20320
   C        3.37392       -13.05677        -7.72010
   C        2.32830       -13.92333        -7.87327
   F        4.61518       -13.43193        -8.06017
   F        4.20536       -10.93452        -7.06275
   C       -0.49506       -11.80624        -6.63396
   C       -1.54133       -12.67519        -6.78571
   C       -2.97277       -12.51892        -6.53989
   C       -3.64331       -11.32344        -6.51335
   C       -5.04746       -11.22536        -6.60855
   N       -6.17999       -11.10158        -6.74893
   C       -3.00555       -10.06854        -6.49057
   N       -2.52930        -9.02477        -6.44231
   H      -11.24724        -4.31892        10.92729
   H      -10.04737        -1.02106         7.42717
   H      -10.51989        -6.14516         9.48992
   H       -9.30425        -2.87687         5.92712
   H       -9.07956        -9.09486         5.18849
   H       -7.82623        -6.23384         2.76125
   H       -4.73716        -4.70565        -0.64206
   H       -5.94904        -4.78786        -2.75843
   H       -7.89329        -6.22766        -3.05033
   H      -10.02823        -6.72955        -2.45521
   H      -10.63267        -8.32828        -1.98769
   H       -9.25268        -8.20431        -3.10716
   H       -4.60553        -4.30409         1.68630
   H       -3.45891        -5.55440         1.12196
   H       -4.01221        -5.54646         2.81448
   H       -5.85199        -8.95398        -0.62648
   H       -5.22122       -10.55412        -2.34516
   H       -8.29675       -13.16081        -1.18137
   H       -7.62305       -12.11334         0.80864
   H       -8.44897       -13.78728        -3.43493
   H      -10.44089       -15.38482        -7.55941
   H       -9.62183       -17.65674        -7.93078
   H       -7.54305       -18.43516        -6.82605
   H       -6.75941       -17.85040        -3.53793
   H       -6.16219       -16.17584        -3.40820
   H       -5.01053       -17.51690        -3.63266
   H      -10.18446       -13.02919        -7.73995
   H      -10.34658       -11.97033        -6.31712
   H      -11.21937       -13.52246        -6.36700
   H       -4.98916       -15.33466        -6.53768
   H        0.07530       -15.40809        -8.04656
   H        1.76171       -10.35910        -6.45631
   H        2.50722       -14.91034        -8.27016
   H       -0.63296       -10.81307        -6.23661
*
