# ORCA input file
# SCF done       -204.573667784261          0.000774215342
! CAM-B3LYP def2-SVP def2/J RIJCOSX Grid4 TightSCF
%maxcore 5000
%tddft
    Mode sTDDFT
    Ethresh 5.0
    maxcore 5000
end

%pal
  nprocs 6
  end
* xyz 0 1
   C       -4.39482         2.98774         0.12376
   C       -3.46015         3.56668         0.93529
   F       -3.32327         4.89820         0.96180
   C       -2.63009         2.77364         1.75382
   F       -1.72313         3.36900         2.53882
   C       -2.74645         1.41192         1.74896
   C       -3.70074         0.78537         0.92394
   C       -4.54197         1.58593         0.09737
   C       -5.51262         0.98002        -0.73206
   C       -5.64424        -0.38442        -0.72868
   C       -4.79539        -1.17547         0.09473
   C       -3.84261        -0.61956         0.89900
   C       -5.12252        -2.60241        -0.08191
   O       -4.52083        -3.54663         0.37580
   C       -6.25205        -2.63176        -1.05386
   C       -6.55751        -1.26848        -1.44550
   C       -7.57522        -0.87004        -2.27080
   C       -8.49817        -1.73956        -2.89040
   N       -9.28959        -2.38745        -3.41123
   C       -7.84791         0.47587        -2.59583
   N       -8.11343         1.54948        -2.90149
   C       -6.75660        -3.77307        -1.60039
   C       -6.58775        -5.07406        -1.05883
   C       -6.51020        -5.45969         0.27091
   F       -6.67398        -4.61671         1.28575
   C       -6.37874        -6.84084         0.44047
   C       -6.36105        -7.53060        -0.77934
   S       -6.54190        -6.46944        -2.12146
   C       -6.20701        -8.91058        -0.59886
   C       -6.10808        -9.24489         0.75782
   S       -6.21137        -7.87715         1.82609
   C       -5.94348       -10.62267         0.94881
   F       -5.82603       -11.18560         2.15612
   C       -5.92138       -11.33416        -0.23205
   S       -6.10900       -10.29587        -1.62222
   C       -5.77106       -12.74132        -0.47336
   C       -5.52103       -13.70147         0.52250
   N       -5.37885       -14.96833         0.21952
   C       -5.48550       -15.34020        -1.06306
   C       -5.73945       -14.38135        -2.05806
   N       -5.87238       -13.11235        -1.75635
   C       -5.30559       -16.74548        -1.29464
   C       -5.41406       -17.49634        -2.44559
   F       -5.74198       -16.98265        -3.63558
   C       -5.15099       -18.85723        -2.23942
   C       -4.83101       -19.13225        -0.90346
   S       -4.87095       -17.72039         0.08560
   C       -4.55143       -20.48894        -0.71013
   C       -4.67293       -21.22708        -1.89400
   S       -5.12456       -20.26002        -3.26595
   C       -4.39809       -22.58340        -1.69690
   F       -4.45614       -23.50230        -2.65806
   C       -4.01934       -22.89430        -0.40091
   S       -4.07761       -21.46886         0.62242
   C       -3.71506       -24.19503         0.07669
   C       -3.01580       -24.54783         1.18473
   C       -3.18446       -25.91127         1.76820
   O       -3.70292       -26.86494         1.24049
   C       -2.64354       -25.80822         3.13921
   C       -2.66243       -26.73684         4.14007
   C       -2.10221       -26.40629         5.39435
   C       -1.54028       -25.11089         5.59158
   C       -0.99343       -24.78507         6.84910
   C       -0.99798       -25.70350         7.86102
   C       -1.54944       -26.98593         7.66362
   C       -2.09070       -27.33097         6.45698
   F       -1.53953       -27.86575         8.67290
   F       -0.47670       -25.39279         9.05418
   C       -1.52655       -24.17269         4.53461
   C       -2.06169       -24.52081         3.32353
   C       -2.14089       -23.79370         2.06067
   C       -1.31275       -22.77100         1.68366
   C       -1.21805       -22.30009         0.35698
   N       -1.08414       -21.92797        -0.72029
   C       -0.39392       -22.14975         2.55460
   N        0.35726       -21.60877         3.23241
   H       -5.02308         3.60924        -0.49501
   H       -2.10412         0.81898         2.38100
   H       -6.12855         1.61255        -1.35053
   H       -3.21254        -1.24421         1.51362
   H       -7.31190        -3.72455        -2.52847
   H       -5.43014       -13.44507         1.56706
   H       -5.82996       -14.63932        -3.10251
   H       -4.15653       -25.01253        -0.48663
   H       -3.09796       -27.71086         3.97719
   H       -0.56327       -23.80986         7.01557
   H       -2.50905       -28.31613         6.32241
   H       -1.10186       -23.19695         4.70969
*
