# ORCA input file
# SCF done       -267.364008013736          0.000525916354
! CAM-B3LYP def2-SVP def2/J RIJCOSX Grid4 TightSCF
%maxcore 5000
%tddft
    Mode sTDDFT
    Ethresh 5.0
    maxcore 5000
end

%pal
  nprocs 6
  end
* xyz 0 1
   C      -10.46476       -18.05013       -13.21539
   C       -9.60904       -18.02005       -14.28056
   F       -9.95880       -18.58877       -15.44181
   C       -8.35120       -17.39352       -14.17297
   F       -7.53224       -17.37924       -15.23356
   C       -7.96600       -16.80626       -13.00054
   C       -8.82488       -16.82223       -11.88458
   C      -10.09774       -17.45381       -11.99212
   C      -10.97734       -17.48205       -10.88554
   C      -10.59440       -16.90041        -9.70536
   C       -9.31867       -16.27948        -9.60678
   C       -8.45002       -16.23039       -10.65819
   C       -9.13728       -15.75459        -8.24077
   O       -8.16344       -15.15459        -7.82978
   C      -10.35706       -16.11878        -7.50022
   C      -11.27151       -16.77765        -8.41622
   C      -12.55298       -17.19192        -8.15917
   C      -13.24260       -17.04320        -6.93746
   N      -13.87802       -16.95763        -5.98419
   C      -13.38433       -17.81922        -9.11132
   N      -14.11025       -18.33410        -9.83644
   C      -10.57676       -15.92867        -6.16246
   C       -9.77247       -15.32690        -5.17555
   C      -10.16151       -15.28625        -3.84713
   C       -9.23890       -14.66378        -2.99609
   C       -9.33835       -14.47558        -1.59413
   C      -10.52323       -14.85487        -0.86190
   C      -11.83366       -14.70521        -1.23012
   C      -12.74213       -15.18947        -0.27140
   C      -12.14144       -15.72141         0.83004
   S      -10.41725       -15.61781         0.70784
   C      -12.77004       -16.32357         2.02946
   C       -8.21232       -13.94752        -0.97831
   C       -7.03922       -13.56177        -1.67526
   C       -6.98195       -13.65443        -3.07996
   C       -8.08230       -14.24009        -3.70545
   S       -8.20828       -14.57463        -5.40816
   C       -5.85766       -13.15248        -3.84042
   C       -5.31052       -13.64166        -4.99423
   C       -4.26359       -12.84610        -5.49842
   C       -4.01022       -11.73820        -4.74991
   S       -5.06573       -11.66501        -3.37847
   C       -2.99481       -10.67730        -4.97601
   C       -6.00253       -13.18806        -0.78272
   C       -6.35096       -13.27920         0.53040
   S       -8.03106       -13.72339         0.74312
   C       -5.50425       -13.07118         1.66961
   C       -5.51215       -13.74922         2.86614
   C       -4.56166       -13.21554         3.79844
   C       -4.28033       -13.63079         5.09776
   C       -3.30044       -12.96645         5.82089
   C       -2.58303       -11.89464         5.26275
   C       -2.84198       -11.48424         3.97523
   C       -3.82714       -12.14331         3.25157
   S       -4.31199       -11.79308         1.62167
   C       -3.01283       -13.37400         7.14447
   N       -2.77089       -13.70050         8.21622
   C       -6.34385       -14.90853         3.10445
   C       -6.58393       -15.92676         2.23196
   C       -7.50934       -16.88754         2.70912
   C       -8.02591       -18.01349         2.03242
   C       -7.72362       -18.26189         0.63874
   C       -7.60128       -17.34680        -0.36928
   C       -7.34477       -17.92254        -1.62752
   C       -7.25770       -19.28043        -1.59122
   S       -7.50597       -19.87657         0.01763
   C       -6.99397       -20.22294        -2.70901
   C       -8.86138       -18.84366         2.77303
   C       -9.22837       -18.57466         4.11781
   C       -8.78832       -17.39516         4.76020
   C       -7.91962       -16.59433         4.03306
   S       -7.22074       -15.10460         4.60186
   C       -9.24920       -17.06103         6.08826
   C      -10.51603       -17.18647         6.59101
   C      -10.62563       -16.78537         7.93573
   C       -9.44836       -16.35664         8.46990
   S       -8.17036       -16.42357         7.30018
   C       -9.17925       -15.87090         9.84717
   C      -10.02063       -19.59752         4.66901
   C      -10.31936       -20.60973         3.78683
   S       -9.58732       -20.32202         2.21630
   C      -10.99799       -21.82973         4.00176
   C      -11.76351       -22.23665         5.05574
   C      -11.96761       -23.69685         5.26419
   O      -11.74140       -24.58190         4.47276
   C      -12.44756       -23.82677         6.65650
   C      -12.68315       -24.95827         7.38173
   C      -13.11615       -24.83753         8.72178
   C      -13.29203       -23.54086         9.28652
   C      -13.71581       -23.42865        10.62585
   C      -13.95786       -24.55026        11.36821
   C      -13.78684       -25.83190        10.80786
   C      -13.37472       -25.97392         9.51239
   F      -14.03148       -26.91404        11.55901
   F      -14.36138       -24.44080        12.64089
   C      -13.05014       -22.38623         8.50716
   C      -12.63952       -22.52853         7.20909
   C      -12.36452       -21.54071         6.16901
   C      -12.82991       -20.24976         6.16765
   C      -12.82387       -19.44205         5.01543
   N      -12.87091       -18.76819         4.08703
   C      -13.41306       -19.61370         7.28013
   N      -13.84973       -19.03000         8.16738
   H      -11.42420       -18.53327       -13.31516
   H       -6.99984       -16.33103       -12.93385
   H      -11.93161       -17.96935       -11.00146
   H       -7.48938       -15.74931       -10.55376
   H      -11.51019       -16.30827        -5.76402
   H      -11.08075       -15.72955        -3.50846
   H      -12.13764       -14.21355        -2.13704
   H      -13.80960       -15.14386        -0.39384
   H      -12.44938       -15.80648         2.93339
   H      -12.48763       -17.36942         2.13872
   H      -13.85267       -16.26272         1.95516
   H       -5.62273       -14.55865        -5.45878
   H       -3.71912       -13.08780        -6.39376
   H       -2.44606       -10.87864        -5.89283
   H       -2.28959       -10.63482        -4.14594
   H       -3.47029        -9.70016        -5.05754
   H       -5.00747       -12.92825        -1.09497
   H       -4.81820       -14.45420         5.54184
   H       -1.82683       -11.40086         5.85362
   H       -2.29600       -10.66704         3.53107
   H       -6.08477       -16.00571         1.28355
   H       -7.74064       -16.29416        -0.22217
   H       -7.23285       -17.34411        -2.52816
   H       -6.86513       -19.67141        -3.63729
   H       -7.82224       -20.92137        -2.82563
   H       -6.09342       -20.80577        -2.51732
   H      -11.35325       -17.50080         5.99409
   H      -11.54957       -16.81860         8.48542
   H       -8.83954       -14.83552         9.82939
   H       -8.39905       -16.46635        10.32044
   H      -10.08442       -15.93388        10.44605
   H      -10.28912       -19.62254         5.70954
   H      -10.81377       -22.60072         3.25914
   H      -12.54183       -25.93293         6.94016
   H      -13.85532       -22.45518        11.06944
   H      -13.24812       -26.96191         9.09821
   H      -13.18712       -21.41653         8.95922
*
