# ORCA input file
# SCF done       -225.553227090485          0.000370414295
! CAM-B3LYP def2-SVP def2/J RIJCOSX Grid4 TightSCF
%maxcore 5000
%tddft
    Mode sTDDFT
    Ethresh 5.0
    maxcore 5000
end

%pal
  nprocs 6
  end
* xyz 0 1
   C      -11.48002        -0.02779        -2.05279
   C      -12.83982         0.09915        -2.00320
   F      -13.45539         1.03915        -2.73201
   C      -13.61115        -0.75419        -1.18842
   F      -14.94240        -0.60729        -1.16060
   C      -13.01125        -1.72322        -0.43411
   C      -11.61177        -1.87909        -0.46380
   C      -10.83036        -1.01649        -1.28645
   C       -9.42395        -1.15275        -1.33091
   C       -8.81837        -2.12392        -0.57729
   C       -9.60696        -2.98572         0.23228
   C      -10.96589        -2.87551         0.30079
   C       -8.73412        -3.95596         0.92191
   O       -9.10125        -4.78211         1.72941
   C       -7.36684        -3.69880         0.40640
   C       -7.41731        -2.50016        -0.41756
   C       -6.35144        -1.78818        -0.90126
   C       -4.98987        -2.07680        -0.66458
   N       -3.86256        -2.22503        -0.50404
   C       -6.47798        -0.61581        -1.67708
   N       -6.51586         0.33814        -2.31411
   C       -6.25408        -4.48747         0.52059
   C       -6.02748        -5.67170         1.25012
   C       -6.75596        -6.33828         2.22102
   C       -6.13633        -7.50001         2.66283
  Cl       -6.82450        -8.51355         3.85778
   C       -4.90816        -7.77498         2.04909
   S       -4.53042        -6.51741         0.91789
   C       -4.07939        -8.90129         2.24108
   C       -2.87083        -9.19347         1.60718
  Cl       -2.12677        -8.14591         0.47489
   C       -2.32405       -10.41919         1.96559
   C       -3.09461       -11.10244         2.89164
   S       -4.50497       -10.19406         3.33347
   C       -2.85545       -12.39906         3.42053
   C       -3.72483       -12.97051         4.37746
   C       -3.57246       -14.30196         4.89289
   N       -4.46370       -14.75291         5.80129
   C       -5.42943       -13.98623         6.18818
   C       -5.58400       -12.67095         5.67586
   N       -4.74983       -12.20652         4.80462
   F       -6.57851       -11.88642         6.07145
   F       -6.27969       -14.47332         7.08705
   C       -2.52413       -15.14489         4.45438
   C       -1.63565       -14.56377         3.52206
   C       -1.78103       -13.22171         3.01387
   N       -0.81359       -12.92365         2.14412
   S        0.16674       -14.18137         1.98360
   N       -0.57456       -15.17758         2.99845
   C       -2.34627       -16.49671         4.86103
   C       -3.08677       -17.23817         5.76480
   C       -2.64740       -18.55151         5.87581
  Cl       -3.38826       -19.68533         6.92382
   C       -1.55742       -18.86238         5.06323
   S       -1.07416       -17.45377         4.15969
   C       -0.90483       -20.10739         4.93315
   C        0.20304       -20.42709         4.14893
  Cl        1.01432       -19.27661         3.17805
   C        0.58234       -21.76465         4.21432
   C       -0.19999       -22.51095         5.07580
   S       -1.45227       -21.52182         5.77717
   C       -0.11366       -23.90737         5.28605
   C       -0.68892       -24.66359         6.25972
   C       -0.91131       -26.11861         6.02553
   O       -0.40210       -26.80149         5.16883
   C       -1.93557       -26.51102         7.01600
   C       -2.59788       -27.69828         7.14117
   C       -3.57311       -27.83733         8.15433
   C       -3.84639       -26.73803         9.01989
   C       -4.82591       -26.88234        10.02294
   C       -5.50089       -28.06247        10.16206
   C       -5.22951       -29.14915         9.30621
   C       -4.28585       -29.04049         8.32350
   F       -5.90807       -30.29323         9.46408
   F       -6.43075       -28.19793        11.11598
   C       -3.13898       -25.52307         8.87215
   C       -2.19425       -25.41410         7.88767
   C       -1.30169       -24.31735         7.52553
   C       -0.90746       -23.30697         8.36122
   C        0.17560       -22.44973         8.07342
   N        1.08283       -21.77100         7.89164
   C       -1.47357       -23.07741         9.63135
   N       -1.91707       -22.84625        10.66414
   H      -10.90477         0.63463        -2.68065
   H      -13.61518        -2.36884         0.18409
   H       -8.86283        -0.48827        -1.96754
   H      -11.53895        -3.54209         0.92718
   H       -5.39818        -4.19382        -0.07694
   H       -7.70716        -5.99547         2.58445
   H       -1.40610       -10.81043         1.56895
   H       -3.91436       -16.83441         6.31508
   H        1.41658       -22.17017         3.67194
   H        0.40308       -24.46485         4.51046
   H       -2.38240       -28.52050         6.47594
   H       -5.04323       -26.06159        10.68849
   H       -4.09026       -29.88150         7.67683
   H       -3.36916       -24.70242         9.53297
*
