# ORCA input file
# SCF done       -213.805374335045          0.000595586170
! CAM-B3LYP def2-SVP def2/J RIJCOSX Grid4 TightSCF
%maxcore 5000
%tddft
    Mode sTDDFT
    Ethresh 5.0
    maxcore 5000
end

%pal
  nprocs 6
  end
* xyz 0 1
   C       -6.84421         2.72320        -2.19365
   C       -7.58485         3.69827        -1.58025
   C       -8.80124         4.19371        -2.09183
   N       -9.78569         4.63858        -2.47890
   C       -7.25725         4.23919        -0.31947
   N       -7.04118         4.66121         0.72581
   C       -7.27872         1.91565        -3.32651
   C       -6.53576         0.69803        -3.32421
   C       -6.76467        -0.28117        -4.24772
   C       -7.75403        -0.07878        -5.23625
   C       -8.48649         1.14382        -5.25393
   C       -8.23379         2.13801        -4.28118
   C       -9.46573         1.33450        -6.24987
   C       -9.71452         0.36418        -7.18192
   C       -8.99449        -0.83972        -7.16281
   C       -8.03551        -1.05649        -6.21089
   C       -5.55371         0.72403        -2.22539
   O       -4.79064        -0.14635        -1.88003
   C       -5.64724         2.10405        -1.65930
   C       -4.63813         2.58743        -0.89337
   C       -4.31234         3.93788        -0.60276
   C       -3.50647         4.36137         0.44136
   F       -3.00102         3.51367         1.33559
   C       -3.30661         5.74441         0.47624
   C       -3.93656         6.39279        -0.59369
   S       -4.78115         5.29408        -1.61426
   C       -3.73761         7.77575        -0.56047
   C       -2.96168         8.16243         0.53934
   S       -2.46081         6.83095         1.53788
   C       -2.77547         9.55018         0.59594
   F       -1.99355        10.13209         1.50471
   C       -3.39341        10.22485        -0.43982
   S       -4.19210         9.12167        -1.53592
   C       -3.45299        11.63511        -0.69615
   C       -3.48696        12.60500         0.32140
   C       -3.52143        14.00767         0.01921
   N       -3.49048        14.89665         1.03368
   C       -3.47904        14.47957         2.25555
   C       -3.54678        13.08641         2.54927
   N       -3.54808        12.20331         1.61050
   F       -3.63621        12.66743         3.80469
   F       -3.42231        15.38427         3.22428
   C       -3.60954        14.51144        -1.29776
   C       -3.55285        13.53755        -2.31884
   C       -3.49722        12.12481        -2.01383
   N       -3.43906        11.37985        -3.12029
   S       -3.43270        12.34687        -4.39846
   N       -3.50250        13.74514        -3.63493
   C       -3.74632        15.91595        -1.52775
   C       -4.16440        16.58237        -2.67289
   F       -4.60794        15.99282        -3.78258
   C       -4.16727        17.97323        -2.53926
   C       -3.74857        18.38910        -1.27019
   S       -3.39740        17.04994        -0.23749
   C       -3.78623        19.78150        -1.14795
   C       -4.22454        20.40304        -2.32643
   S       -4.59375        19.28315        -3.60320
   C       -4.29965        21.79246        -2.19973
   F       -4.57734        22.60272        -3.21723
   C       -3.93092        22.25024        -0.94432
   S       -3.42967        20.92517         0.08850
   C       -3.89145        23.58870        -0.46855
   C       -4.78336        24.55366        -0.82266
   C       -4.70830        25.96880        -0.51049
   C       -3.59505        26.63961        -0.07735
   C       -3.55863        28.02615         0.17936
   N       -3.47054        29.14705         0.41017
   C       -2.33582        26.04287         0.14274
   N       -1.28332        25.62199         0.32466
   C       -5.99851        26.56434        -0.83146
   C       -6.84689        25.55326        -1.36729
   C       -6.13358        24.26699        -1.39151
   O       -6.58786        23.18788        -1.69879
   C       -8.12469        25.81964        -1.76704
   C       -8.62081        27.13733        -1.65343
   C       -7.78134        28.15385        -1.11211
   C       -6.46409        27.84649        -0.70126
   C       -8.28982        29.46381        -0.99758
   C       -9.56417        29.75772        -1.40006
   C      -10.38887        28.75648        -1.93453
   C       -9.92706        27.47423        -2.05901
   H       -6.19912        -1.20075        -4.22426
   H       -8.79475         3.05888        -4.31998
   H      -10.01989         2.26152        -6.25803
   H      -10.46862         0.51859        -7.93898
   H       -9.20358        -1.59445        -7.90599
   H       -7.47827        -1.98156        -6.19128
   H       -3.94298         1.84899        -0.50337
   H       -3.11116        23.81007         0.24868
   H       -8.74691        25.03465        -2.17042
   H       -5.85598        28.63547        -0.28785
   H       -7.65086        30.23175        -0.58702
   H       -9.94403        30.76422        -1.30903
   H      -11.39187        29.00610        -2.24661
   H      -10.55714        26.69886        -2.46955
*
