# ORCA input file
# SCF done       -246.410543296224          0.000923347653
! CAM-B3LYP def2-SVP def2/J RIJCOSX Grid4 TightSCF
%maxcore 5000
%tddft
    Mode sTDDFT
    Ethresh 5.0
    maxcore 5000
end

%pal
  nprocs 6
  end
* xyz 0 1
   C        4.49262         6.24506        -5.24945
   C        4.72970         7.58557        -5.09576
   C        5.08589         8.44547        -6.15195
   N        5.34536         9.18716        -6.98910
   C        4.72241         8.21843        -3.83378
   N        4.79982         8.73708        -2.81289
   C        4.82345         5.44793        -6.42444
   C        4.93330         4.08304        -6.02489
   C        5.28054         3.10401        -6.91017
   C        5.52771         3.44905        -8.25820
   C        5.40893         4.80942        -8.66527
   C        5.05497         5.80462        -7.72508
   C        5.65560         5.13730       -10.01390
   C        6.00371         4.17103       -10.91791
   C        6.11965         2.83193       -10.51628
   C        5.88745         2.47925        -9.21469
   C        4.60621         3.96324        -4.59120
   O        4.64281         2.97330        -3.89657
   C        4.14329         5.32077        -4.18913
   C        3.38915         5.47266        -3.06952
   C        2.50445         6.53004        -2.73327
   C        1.97553         6.77534        -1.49140
   C        1.08913         7.87287        -1.45022
   C        0.39034         8.39217        -0.33700
   C        0.43451         7.72767         0.94670
   C        0.39847         6.38316         1.19892
   C        0.44972         6.07086         2.57072
   C        0.53107         7.16785         3.37292
   S        0.53171         8.62586         2.43633
   C        0.61462         7.22511         4.85526
   C       -0.34689         9.54938        -0.56063
   C       -0.44924        10.17876        -1.82648
   C        0.20519         9.63129        -2.94976
   C        0.96159         8.49089        -2.71971
   S        1.86365         7.63490        -3.93466
   C        0.11827        10.24984        -4.25626
   C       -0.96701        10.80381        -4.87529
   C       -0.66961        11.34099        -6.14356
   C        0.63885        11.21015        -6.49568
   S        1.53888        10.39542        -5.25988
   C        1.32248        11.67873        -7.72889
   C       -1.23504        11.35212        -1.77289
   C       -1.75783        11.61436        -0.53958
   S       -1.27271        10.40842         0.63834
   C       -2.59944        12.71044        -0.14651
   C       -2.86136        12.98598         1.18405
   C       -3.65803        14.05355         1.59123
   C       -4.27213        14.91635         0.69994
   C       -4.05135        14.66595        -0.68683
   C       -3.20932        13.56733        -1.10940
   N       -3.09213        13.45143        -2.42527
  Se       -4.01251        14.71306        -3.21081
   N       -4.55180        15.37834        -1.68690
   C       -5.07212        16.02140         1.14901
   C       -5.86453        16.85019         0.40875
   C       -6.49276        17.87133         1.15832
   C       -7.32757        18.89984         0.67907
   C       -7.60466        19.04428        -0.73517
   C       -6.73851        18.92369        -1.78652
   C       -7.35011        19.13510        -3.03750
   C       -8.68106        19.40777        -2.95041
   S       -9.20819        19.42356        -1.30048
   C       -9.64580        19.67554        -4.04897
   C       -7.84791        19.77428         1.62844
   C       -7.53514        19.68240         3.01167
   C       -6.66776        18.66886         3.49226
   C       -6.18676        17.78004         2.54125
   S       -5.09730        16.45447         2.85063
   C       -6.27343        18.57359         4.88008
   C       -6.06446        17.44440         5.62414
   C       -5.63073        17.71072         6.93656
   C       -5.48744        19.03806         7.20371
   S       -5.90657        19.99560         5.82327
   C       -5.04967        19.69006         8.46463
   C       -8.19310        20.67942         3.74416
   C       -8.95121        21.54498         2.97449
   S       -8.89034        21.12314         1.27799
   C       -9.65634        22.61510         3.56103
   C      -10.42592        23.59329         2.99527
   C      -11.09722        24.66006         3.71716
   C      -11.07695        24.89204         5.06916
   C      -11.75699        25.95592         5.69836
   N      -12.28142        26.79674         6.27861
   C      -10.38895        24.13008         6.03609
   N       -9.86143        23.57392         6.89226
   C      -11.81084        25.47454         2.73837
   C      -11.57853        24.93428         1.44175
   C      -10.71232        23.74994         1.55734
   O      -10.32062        23.05301         0.64112
   C      -12.11598        25.49051         0.31760
   C      -12.93155        26.63774         0.44005
   C      -13.17328        27.18369         1.73330
   C      -12.60025        26.58523         2.87919
   C      -13.99073        28.32668         1.84532
   C      -14.54290        28.90443         0.73458
   C      -14.30294        28.36666        -0.53857
   C      -13.51439        27.25737        -0.68257
   H        5.36664         2.07708        -6.58717
   H        4.96404         6.82721        -8.05747
   H        5.56806         6.17001       -10.31835
   H        6.19225         4.43330       -11.94828
   H        6.39373         2.08176       -11.24298
   H        5.97549         1.44987        -8.89897
   H        3.39718         4.63133        -2.38311
   H        2.27021         6.21532        -0.62250
   H        0.28778         5.64242         0.42720
   H        0.42484         5.06424         2.94918
   H        0.53253         6.22396         5.27150
   H       -0.18451         7.84394         5.26161
   H        1.56361         7.65902         5.17015
   H       -1.95654        10.79242        -4.45464
   H       -1.40529        11.80894        -6.77375
   H        0.58896        11.95069        -8.48439
   H        1.97567        10.90315        -8.12486
   H        1.94011        12.55146        -7.51358
   H       -1.39403        12.00136        -2.61163
   H       -2.41834        12.35272         1.93886
   H       -3.80385        14.21604         2.64917
   H       -6.00359        16.71557        -0.64630
   H       -5.68715        18.73294        -1.66678
   H       -6.81730        19.08858        -3.97096
   H       -9.13280        19.66285        -5.00773
   H      -10.11821        20.64785        -3.91348
   H      -10.43368        18.92252        -4.06169
   H       -6.25444        16.45253         5.25626
   H       -5.42999        16.94046         7.65990
   H       -4.83799        18.93622         9.21905
   H       -5.82434        20.35799         8.84057
   H       -4.15138        20.28461         8.29889
   H       -8.13660        20.78022         4.81307
   H       -9.54280        22.64590         4.63815
   H      -11.92120        25.05993        -0.65347
   H      -12.80364        27.02506         3.84234
   H      -14.17214        28.73735         2.82779
   H      -15.16786        29.77963         0.83100
   H      -14.74607        28.83555        -1.40448
   H      -13.32605        26.83851        -1.66040
*
