# ORCA input file
# SCF done       -188.024502381950          0.000866434990
! CAM-B3LYP def2-SVP def2/J RIJCOSX Grid4 TightSCF
%maxcore 5000
%tddft
    Mode sTDDFT
    Ethresh 5.0
    maxcore 5000
end

%pal
  nprocs 6
  end
* xyz 0 1
   C        0.04395         0.84859        -3.34521
   C        1.20426         1.03494        -4.05104
   C        1.72648         0.10172        -4.97180
   N        2.20518        -0.61184        -5.73314
   C        2.04874         2.16165        -3.97020
   N        2.78998         3.03914        -3.96311
   C       -0.81914        -0.32548        -3.43870
   C       -1.91026        -0.16030        -2.53755
   C       -2.89281        -1.09873        -2.40693
   C       -2.83035        -2.27252        -3.19059
   C       -1.74315        -2.44796        -4.09453
   C       -0.73941        -1.45744        -4.20572
   C       -1.69128        -3.62192        -4.87285
   C       -2.66583        -4.57695        -4.76557
   C       -3.73597        -4.40253        -3.87575
   C       -3.81627        -3.27469        -3.10434
   C       -1.76962         1.12588        -1.84414
   O       -2.51960         1.57811        -0.99501
   C       -0.55249         1.75291        -2.37696
   C       -0.08654         2.99279        -2.02954
   C       -0.61384         3.93292        -1.12631
   C       -0.02246         5.17850        -0.92617
   C       -0.70002         5.97107        -0.01640
  Cl       -0.19401         7.55490         0.40546
   C       -1.83316         5.35899         0.52280
   S       -2.03722         3.76246        -0.13500
   C       -2.75123         5.91028         1.44878
   C       -3.87212         5.29360         2.00031
  Cl       -4.32130         3.67719         1.66347
   C       -4.61212         6.11246         2.85203
   C       -4.07473         7.37592         2.97156
   S       -2.62747         7.54943         2.03442
   C       -4.60441         8.46392         3.70369
   N       -4.07427         9.64840         3.77068
   C       -4.83975        10.47266         4.48389
   C       -6.02731         9.92886         5.00763
   S       -6.15494         8.27439         4.57277
   N       -6.81515        10.76050         5.68293
   C       -6.30440        11.95572         5.72343
   S       -4.73148        12.13660         4.90157
   C       -6.96722        13.05533         6.31722
   C       -6.56352        14.36807         6.41625
   C       -7.53449        15.17777         7.00822
  Cl       -7.31121        16.85789         7.25178
   C       -8.69721        14.50391         7.37058
   S       -8.55148        12.81303         6.97715
   C       -9.88464        15.04231         7.92559
   C      -11.04930        14.35877         8.27662
  Cl      -11.19947        12.65763         8.15333
   C      -12.08388        15.16966         8.73121
   C      -11.75013        16.51075         8.74450
   S      -10.09906        16.73777         8.20698
   C      -12.46323        17.67613         9.10179
   C      -13.78859        17.86809         9.37079
   C      -14.35925        19.16747         9.70075
   C      -13.68073        20.27280        10.14232
   C      -14.30199        21.49748        10.46756
   N      -14.74514        22.52135        10.73813
   C      -12.29240        20.34549        10.38589
   N      -11.17978        20.48002        10.63697
   C      -15.80641        19.06966         9.56008
   C      -16.13874        17.71370         9.28528
   C      -14.91068        16.90408         9.22297
   O      -14.86306        15.70139         9.07280
   C      -17.42975        17.30606         9.10998
   C      -18.46901        18.25906         9.19314
   C      -18.14476        19.62116         9.45794
   C      -16.79824        20.01122         9.64197
   C      -19.18945        20.56494         9.53172
   C      -20.49150        20.18359         9.35388
   C      -20.80939        18.84208         9.09410
   C      -19.81965        17.90019         9.01592
   H       -3.70834        -0.94616        -1.71568
   H        0.06761        -1.62238        -4.90142
   H       -0.86553        -3.75223        -5.55677
   H       -2.61702        -5.47257        -5.36650
   H       -4.49629        -5.16581        -3.80413
   H       -4.63775        -3.13446        -2.41706
   H        0.81679         3.33651        -2.51861
   H        0.87060         5.49036        -1.43716
   H       -5.50786         5.79533         3.35363
   H       -5.61298        14.72986         6.06966
   H      -13.04678        14.79703         9.02837
   H      -11.83809        18.56210         9.11270
   H      -17.65410        16.26953         8.90620
   H      -16.58595        21.05069         9.83494
   H      -18.94013        21.59636         9.73335
   H      -21.28438        20.91409         9.41250
   H      -21.84213        18.55892         8.95580
   H      -20.05794        16.86575         8.81584
*
