# ORCA input file
# SCF done       -186.726203073510          0.000833575137
! CAM-B3LYP def2-SVP def2/J RIJCOSX Grid4 TightSCF
%maxcore 5000
%tddft
    Mode sTDDFT
    Ethresh 5.0
    maxcore 5000
end

%pal
  nprocs 6
  end
* xyz 0 1
   C        1.81379         0.15432        -2.20878
   C        2.63527         0.19230        -3.30704
   N        2.79225        -0.80615        -4.18607
   C        2.14802        -1.93310        -4.03577
   C        1.25551        -2.11122        -2.94296
   C        1.09334        -1.03367        -2.00829
   N        0.23148        -1.34920        -1.03803
   S       -0.29610        -2.84225        -1.27972
   N        0.52394        -3.17971        -2.62228
   C        2.31894        -3.04104        -4.95799
   C        3.46288        -3.73657        -5.25773
   N        4.76567        -3.48331        -4.76990
   O        5.69141        -3.98369        -5.38000
   O        4.87892        -2.81641        -3.75962
   C        3.13127        -4.86657        -6.10194
   C        1.78743        -4.91062        -6.24420
   C        1.21302        -3.77145        -5.56018
   C       -0.10314        -3.36031        -5.55299
   C       -0.57044        -2.01187        -5.50912
   C       -1.90157        -2.00037        -5.80776
   C       -2.35605        -3.34846        -5.96454
   N       -3.70759        -3.68862        -6.14351
   O       -4.03323        -4.85946        -6.03281
   O       -4.48378        -2.78087        -6.39021
   C       -1.28074        -4.21802        -5.78328
   C       -1.30550        -5.61645        -5.66473
   C       -0.41495        -6.30909        -4.88408
   C       -0.41531        -7.70788        -4.78011
   N        0.31146        -8.41424        -3.84699
   C        1.12975        -7.84916        -2.79937
   C        0.28880        -7.25189        -1.67439
   C        0.11937        -9.79369        -3.96539
   O        0.64744       -10.62108        -3.24528
   C       -0.78634        -9.93780        -5.08865
   C       -1.09294        -8.65288        -5.56591
   C       -1.95353        -8.79448        -6.72605
   O       -2.43012        -7.98569        -7.48849
   N       -2.12993       -10.18748        -6.85446
   C       -2.98848       -10.73757        -7.87591
   C       -4.35452       -11.12667        -7.31717
   C       -1.44479       -10.88566        -5.89413
   C       -1.41605       -12.28736        -5.79220
   C       -0.69363       -12.91946        -4.81743
   C       -0.59747       -14.30655        -4.65620
   S       -1.43508       -15.44059        -5.67197
   C       -0.80665       -16.81360        -4.83893
   C        0.05508       -16.41678        -3.80375
   C        0.16932       -14.99511        -3.69651
   C        0.99975       -14.42117        -2.71639
   C        1.71174       -15.24034        -1.88285
   C        2.61194       -14.67037        -0.81998
   F        2.59092       -13.33342        -0.78440
   F        2.26815       -15.08828         0.41017
   F        3.89526       -15.02597        -1.00198
   C        1.63403       -16.65578        -2.00610
   C        2.39219       -17.50071        -1.15952
   N        2.99090       -18.21738        -0.49667
   C        0.82125       -17.23292        -2.95480
   C       -1.19433       -18.12199        -5.29022
   C       -1.50270       -18.34744        -6.63016
   N       -1.90451       -19.50097        -7.15695
   C       -2.04509       -20.55951        -6.40491
   C       -1.77495       -20.49972        -5.02645
   C       -1.34243       -19.25412        -4.44835
   N       -1.18548       -19.35453        -3.12772
   S       -1.52909       -20.85675        -2.67376
   N       -1.89936       -21.45978        -4.10736
   H        1.71559         0.98379        -1.52943
   H        3.21880         1.07340        -3.53380
   H        3.86731        -5.53016        -6.51348
   H        1.22396        -5.59796        -6.84441
   H        0.06041        -1.15237        -5.38779
   H       -2.54162        -1.14361        -5.90695
   H       -2.12583        -6.14062        -6.14151
   H        0.28152        -5.75513        -4.27006
   H        1.79548        -7.09383        -3.22678
   H        1.73396        -8.67360        -2.41096
   H       -0.34083        -6.44495        -2.04224
   H        0.94317        -6.85870        -0.90185
   H       -0.34551        -8.01798        -1.23514
   H       -2.49720       -11.59560        -8.34308
   H       -3.11032        -9.94942        -8.62394
   H       -4.26087       -11.88911        -6.54687
   H       -4.98119       -11.51136        -8.11662
   H       -4.83979       -10.25487        -6.88571
   H       -1.97218       -12.87370        -6.51057
   H       -0.14183       -12.31522        -4.10942
   H        1.07755       -13.34843        -2.62710
   H        0.77027       -18.30515        -3.03444
   H       -1.40607       -17.53778        -7.34220
   H       -2.38591       -21.46996        -6.87405
*
