# ORCA input file
# SCF done       -193.189942433033          0.000196061876
! CAM-B3LYP def2-SVP def2/J RIJCOSX Grid4 TightSCF
%maxcore 5000
%tddft
    Mode sTDDFT
    Ethresh 5.0
    maxcore 5000
end

%pal
  nprocs 6
  end
* xyz 0 1
   C        6.26673         1.46676        -6.64932
   C        6.84348         2.38045        -5.80950
   C        7.88034         2.06681        -4.90676
   N        8.70965         1.85329        -4.14244
   C        6.53420         3.75708        -5.81351
   N        6.37668         4.89380        -5.82086
   C        6.74303         0.10843        -6.88089
   C        6.22990        -0.34611        -8.13166
   C        6.55010        -1.57480        -8.63372
   C        7.40367        -2.42198        -7.89210
   C        7.90561        -1.98036        -6.63342
   C        7.56205        -0.70121        -6.13993
   C        8.75217        -2.83770        -5.90125
   C        9.09128        -4.07026        -6.38873
   C        8.59797        -4.50365        -7.62864
   C        7.77237        -3.69735        -8.36404
   C        5.35381         0.68967        -8.70690
   O        4.79023         0.68470        -9.77604
   C        5.25173         1.74385        -7.65246
   C        4.26048         2.66078        -7.70958
   C        3.78152         3.52446        -6.65662
   C        3.77006         3.08299        -5.31667
   C        3.32406         3.87183        -4.28496
   C        2.89502         5.15807        -4.60237
   C        2.88370         5.59169        -5.95116
   C        3.29285         4.78965        -6.99059
   O        2.41361         6.86040        -5.96538
   C        2.17206         7.14767        -4.65576
   N        2.43448         6.17498        -3.82403
   C        1.67658         8.42111        -4.28900
   S        1.31335         9.63928        -5.46734
   C        0.83226        10.79939        -4.23339
   C        0.98043        10.22204        -2.98523
   C        1.42855         8.87518        -2.99978
   C        1.51087         8.31825        -1.69967
   C        1.12646         9.19608        -0.73897
   C        1.08615         8.98317         0.72827
   S        0.65794        10.76242        -1.38169
   C        0.40144        12.09816        -4.60028
   C        0.67832        13.32351        -3.99358
   N        1.48452        13.59308        -2.89017
   O        1.57207        14.75539        -2.51672
   O        2.09010        12.66539        -2.35913
   C        0.12779        14.37627        -4.80202
   C       -0.43436        13.83574        -5.91268
   C       -0.34568        12.40785        -5.82378
   C       -1.04664        11.49619        -6.59711
   C       -1.59904        10.26111        -6.15655
   C       -2.41455         9.77581        -7.13451
   C       -2.37976        10.64873        -8.26732
   N       -3.12486        10.33297        -9.40764
   O       -3.28126        11.16945       -10.28878
   O       -3.61339         9.21336        -9.46105
   C       -1.51955        11.72397        -7.98371
   C       -0.92598        12.73027        -8.75671
   C       -1.24321        13.14539       -10.03002
   C       -0.54505        14.17867       -10.66226
   S       -0.98149        14.68180       -12.27165
   C        0.21655        15.92088       -12.34061
   C        0.94045        15.95550       -11.13908
   C        0.51324        14.98547       -10.18722
   N        1.08239        14.92241        -8.97591
   C        2.04458        15.77122        -8.70097
   C        2.56968        15.71839        -7.30216
   C        2.14310        16.96101        -6.51119
   O        0.73073        17.04358        -6.53844
   C        2.53055        16.68280        -9.69147
   C        3.70773        17.59605        -9.47373
   N        3.26782        18.82887        -8.82427
   N        1.97527        16.77178       -10.87522
   C        0.43204        16.76940       -13.46600
   C       -0.27132        16.72737       -14.60054
   H        6.15786        -1.89668        -9.58696
   H        7.94855        -0.39446        -5.18045
   H        9.13227        -2.49800        -4.94900
   H        9.74254        -4.71843        -5.82178
   H        8.87523        -5.47967        -7.99775
   H        7.38954        -4.02571        -9.31924
   H        3.73117         2.71454        -8.65593
   H        4.09647         2.07460        -5.10694
   H        3.31002         3.52376        -3.26551
   H        3.28466         5.13658        -8.01105
   H        1.83917         7.31148        -1.52172
   H        1.37063         7.96207         0.96833
   H        0.08675         9.17673         1.11601
   H        1.77169         9.66790         1.22683
   H        0.18427        15.41497        -4.54293
   H       -0.95861        14.38153        -6.67066
   H       -1.49246         9.85518        -5.16926
   H       -3.02077         8.89020        -7.09542
   H       -0.10477        13.25337        -8.28678
   H       -2.06335        12.69497       -10.57055
   H        3.65811        15.65521        -7.29264
   H        2.14593        14.83387        -6.82574
   H        2.58458        17.85684        -6.96567
   H        2.50188        16.85878        -5.47748
   H        0.46081        17.82716        -6.04963
   H        4.16588        17.77284       -10.45949
   H        4.44523        17.11965        -8.82269
   H        2.55817        19.27801        -9.39480
   H        4.04907        19.47077        -8.73993
   H        1.23636        17.48025       -13.33071
   H       -1.07356        16.02093       -14.73790
   H       -0.06400        17.39593       -15.41645
*
