# ORCA input file
# SCF done       -211.181576375216          0.000607015804
! CAM-B3LYP def2-SVP def2/J RIJCOSX Grid4 TightSCF
%maxcore 5000
%tddft
    Mode sTDDFT
    Ethresh 5.0
    maxcore 5000
end

%pal
  nprocs 6
  end
* xyz 0 1
   C       -1.14741         2.89372         2.60327
   C        0.05158         3.48602         2.88827
   C        0.88572         3.08314         3.95409
   N        1.60102         2.78797         4.80089
   C        0.57637         4.61077         2.21826
   N        1.04245         5.54919         1.74895
   C       -1.80387         1.87438         3.41157
   C       -3.18943         1.84032         3.07257
   C       -4.06081         0.99437         3.69739
   C       -3.57730         0.12124         4.69679
   C       -2.19081         0.13797         5.02849
   C       -1.31272         1.02898         4.37157
   C       -1.71920        -0.74611         6.02052
   C       -2.57416        -1.60443         6.65632
   C       -3.93882        -1.61927         6.33003
   C       -4.42995        -0.77437         5.37213
   C       -3.45348         2.79989         1.98880
   O       -4.50913         3.09569         1.48461
   C       -2.10231         3.30441         1.58149
   C       -1.93536         3.89033         0.38127
   C       -0.67578         4.14219        -0.28831
   C       -0.44435         5.33364        -0.96599
   C        0.80566         5.56268        -1.54150
   C        1.75204         4.53353        -1.46385
   N        1.51146         3.37863        -0.87874
   C        0.34877         3.18585        -0.29578
   C        1.04012         6.80402        -2.24710
   N        2.20734         7.50703        -2.27480
   C        3.39821         7.28588        -1.48404
   C        4.55987         6.79029        -2.34075
   C        2.10146         8.65146        -3.09966
   O        3.00888         9.44483        -3.25459
   C        0.75312         8.60109        -3.61802
   C        0.12157         7.46960        -3.05081
   C       -1.23856         7.40861        -3.55523
   O       -2.15074         6.64354        -3.33275
   N       -1.33359         8.51970        -4.41048
   C       -2.54438         8.79570        -5.14950
   C       -2.45947         8.28866        -6.58629
   C       -0.16260         9.23488        -4.47203
   C        0.01563        10.36733        -5.29126
   C        1.22019        11.01417        -5.35370
   C        1.58388        12.12442        -6.14103
   C        0.87073        13.14735        -6.77425
   N       -0.50800        13.33055        -6.97079
   O       -0.87732        14.44176        -7.30835
   O       -1.27257        12.38745        -6.82044
   C        1.79084        14.16140        -7.20824
   C        3.05270        13.81002        -6.85010
   C        3.00567        12.53080        -6.21106
   C        4.08514        11.73572        -5.87325
   C        4.14494        10.30865        -5.97165
   C        5.43898         9.90984        -5.82615
   C        6.24749        11.05738        -5.54677
   N        7.62316        10.96359        -5.26481
   O        8.12531         9.85414        -5.31200
   O        8.23918        11.98302        -5.00264
   C        5.44714        12.19843        -5.54816
   C        5.81060        13.50016        -5.14366
   C        4.92356        14.42523        -4.66990
   C        5.29424        15.74905        -4.35808
   C        4.39748        16.71860        -3.99747
   C        4.68776        18.10312        -3.67455
   C        5.90534        18.72943        -3.75280
   C        6.11860        20.08649        -3.42972
   N        6.36395        21.18049        -3.18327
   C        7.11172        18.13904        -4.18469
   N        8.13173        17.74533        -4.53523
   C        3.43675        18.74010        -3.27724
   C        2.38296        17.78929        -3.39682
   C        2.92827        16.50635        -3.86227
   O        2.29879        15.49240        -4.08859
   C        1.08666        18.10549        -3.10613
   C        0.77892        19.41182        -2.66639
   C        1.82813        20.36735        -2.53559
   C        3.16015        20.01161        -2.84903
   C        1.51097        21.66722        -2.09219
   C        0.22014        22.00876        -1.79230
   C       -0.81209        21.06760        -1.92251
   C       -0.53890        19.79673        -2.35070
   H       -5.10673         0.98951         3.42930
   H       -0.26650         1.01260         4.63393
   H       -0.66870        -0.72868         6.27046
   H       -2.20372        -2.27721         7.41493
   H       -4.59864        -2.30405         6.84118
   H       -5.47931        -0.78144         5.11677
   H       -2.83686         4.15455        -0.16149
   H       -1.20908         6.09302        -1.00629
   H        2.72313         4.61969        -1.92818
   H        0.20620         2.21677         0.16544
   H        3.16092         6.58486        -0.68200
   H        3.67470         8.24874        -1.04279
   H        4.30508         5.87034        -2.86258
   H        5.42439         6.60569        -1.70990
   H        4.82163         7.54599        -3.07689
   H       -2.74494         9.86932        -5.13216
   H       -3.34674         8.27260        -4.62214
   H       -1.66045         8.78801        -7.12875
   H       -3.39808         8.48454        -7.09609
   H       -2.27476         7.21695        -6.59560
   H       -0.81391        10.70007        -5.89417
   H        2.01898        10.63084        -4.73266
   H        1.48305        15.04350        -7.73728
   H        3.95355        14.33860        -7.09315
   H        3.32396         9.68174        -6.25985
   H        5.82959         8.91259        -5.90002
   H        6.86839        13.73689        -5.16390
   H        3.89007        14.15028        -4.51889
   H        6.34451        15.99921        -4.43789
   H        0.30637        17.36654        -3.21194
   H        3.92934        20.75920        -2.73946
   H        2.30862        22.38894        -1.99475
   H       -0.01262        23.00702        -1.45333
   H       -1.82472        21.35471        -1.68205
   H       -1.32918        19.06783        -2.45412
*
