# ORCA input file
# SCF done       -234.611516470563          0.000947382070
! CAM-B3LYP def2-SVP def2/J RIJCOSX Grid4 TightSCF
%maxcore 5000
%tddft
    Mode sTDDFT
    Ethresh 5.0
    maxcore 5000
end

%pal
  nprocs 6
  end
* xyz 0 1
   C        0.58182         4.80642        -5.78880
   C       -0.37997         5.73480        -5.43741
   C       -0.06626         7.07150        -5.14167
   N        0.19665         8.14847        -4.83766
   C       -1.74345         5.46551        -5.68523
   N       -2.81975         5.29585        -6.04376
   C        1.92987         5.11472        -6.25573
   C        2.37989         4.01560        -7.04446
   C        3.61117         4.01442        -7.63140
   C        4.46779         5.12400        -7.43700
   C        4.01469         6.23170        -6.66508
   C        2.72365         6.21438        -6.08706
   C        4.87400         7.33310        -6.48403
   C        6.12929         7.33776        -7.02966
   C        6.57706         6.24558        -7.78617
   C        5.76211         5.16416        -7.98996
   C        1.33734         2.96771        -7.06843
   O        1.30911         1.95433        -7.71579
   C        0.34370         3.41666        -6.03095
   C       -0.24798         2.41531        -5.29420
   C       -0.36697         2.36939        -3.89049
   C       -0.02121         1.21306        -3.15612
   N       -0.04771        -0.12669        -3.58695
   O       -0.59127        -0.38780        -4.64607
   O        0.46431        -0.95462        -2.85399
   C        0.49382         1.60320        -1.89480
   C        0.47213         2.97377        -1.80580
   C       -0.17512         3.48455        -2.96096
   C       -0.82639         4.71955        -2.96476
   C       -2.22661         4.85740        -3.18059
   C       -2.63255         6.04983        -2.64841
   C       -1.48992         6.76216        -2.16754
   N       -1.56117         8.08479        -1.71189
   O       -2.66902         8.56010        -1.53074
   O       -0.52042         8.70332        -1.52601
   C       -0.34896         5.97045        -2.34742
   C        0.98745         6.37817        -2.22375
   C        2.05868         5.72156        -2.77688
   C        3.34386         6.26591        -2.92441
   S        4.68602         5.21437        -3.29948
   C        5.77352         6.53837        -3.28382
   C        5.16111         7.72200        -3.02246
   C        3.76241         7.60740        -2.81565
   C        2.84382         8.69371        -2.65097
   C        3.04369         9.83862        -1.93329
   C        1.95454        10.87329        -1.88900
   C        1.45837        11.06437        -0.49283
   S        1.31009         9.70718         0.57386
   C        0.68402        10.71135         1.83941
   C        0.34346        10.13222         3.16831
   C        1.60290         9.73911         3.94387
   C        0.60446        12.01060         1.43649
   C        1.04628        12.21225         0.11210
   C        4.21761        10.00828        -1.14777
   C        4.62063        11.13136        -0.49074
   C        5.88401        11.20524         0.14413
   C        6.90357        10.27065         0.10797
   C        8.03515        10.77340         0.79012
   C        7.64358        12.10333         1.30598
   C        6.36978        12.34898         0.90591
   C        8.43033        12.96608         2.07718
   N        9.04440        13.69418         2.71879
   C        9.26734        10.16151         0.90322
   C       10.43333        10.64452         1.55298
   C       11.44233         9.70484         1.43368
   C       10.91155         8.57894         0.68242
   C        9.62216         8.84264         0.34182
   C        8.82275         8.01434        -0.45068
   N        8.20187         7.32626        -1.13238
   C       12.77999         9.75710         1.89452
   C       13.38556        10.85674         2.42542
   C       14.74228        10.82452         2.81552
   C       15.46236        11.90538         3.24204
   C       16.85772        11.91958         3.63923
   C       17.69176        10.83646         3.75829
   C       19.04195        10.91763         4.15992
   N       20.14546        10.90919         4.47696
   C       17.33970         9.49337         3.51151
   N       17.13606         8.37690         3.33252
   C       17.22921        13.30402         3.91050
   C       16.08413        14.12969         3.72222
   C       14.93978        13.29857         3.31348
   O       13.81539        13.68060         3.07120
   C       16.13108        15.48251         3.89815
   C       17.35187        16.08615         4.27344
   C       18.50336        15.26829         4.46238
   C       18.42249        13.86912         4.27706
   C       19.71812        15.88112         4.83164
   C       19.79400        17.23633         5.00465
   C       18.65970        18.04053         4.81790
   C       17.46433        17.47765         4.46103
   H        3.93327         3.17844        -8.23377
   H        2.40343         7.06673        -5.50931
   H        4.52067         8.17485        -5.90624
   H        6.78203         8.18496        -6.88232
   H        7.56954         6.26554        -8.21027
   H        6.10091         4.32306        -8.57632
   H       -0.29469         1.45101        -5.79389
   H        0.83003         0.91157        -1.14564
   H        0.73595         3.56360        -0.94873
   H       -2.85650         4.08455        -3.57624
   H       -3.63745         6.42313        -2.59029
   H        1.14488         7.32513        -1.72889
   H        1.92850         4.71955        -3.16451
   H        6.81770         6.37085        -3.45819
   H        5.68599         8.66004        -3.03798
   H        1.89162         8.58047        -3.15627
   H        1.11916        10.54323        -2.51299
   H        2.31192        11.83056        -2.27799
   H       -0.28367         9.24752         3.03331
   H       -0.22494        10.86979         3.73846
   H        2.17224         8.99834         3.38666
   H        1.33480         9.31919         4.90993
   H        2.23457        10.60963         4.10620
   H        0.23357        12.80031         2.06562
   H        1.04766        13.17194        -0.37476
   H        4.85872         9.14241        -1.07812
   H        3.99956        12.01565        -0.46707
   H        6.87588         9.31779        -0.37941
   H        5.79393        13.23217         1.11397
   H       10.49893        11.58544         2.06304
   H       11.47161         7.69765         0.42762
   H       13.36332         8.85059         1.77523
   H       12.84409        11.78478         2.52955
   H       15.23883         9.86474         2.74320
   H       15.24705        16.08434         3.74825
   H       19.31337        13.28013         4.42590
   H       20.58871        15.25787         4.97427
   H       20.72939        17.69650         5.28566
   H       18.73799        19.10825         4.95782
   H       16.58746        18.09145         4.31594
*
