# ORCA input file
# SCF done       -206.946616701746          0.000816730054
! CAM-B3LYP def2-SVP def2/J RIJCOSX Grid4 TightSCF
%maxcore 5000
%tddft
    Mode sTDDFT
    Ethresh 5.0
    maxcore 5000
end

%pal
  nprocs 6
  end
* xyz 0 1
   C        5.92769        10.65575         0.56065
   C        5.50282        10.76825        -0.73963
   C        4.79273         9.76936        -1.42597
   N        4.19693         9.01098        -2.05224
   C        5.76726        11.87828        -1.56120
   N        5.95533        12.74708        -2.28849
   C        5.74831         9.50172         1.42264
   C        6.65563         9.60834         2.51730
   C        6.63282         8.70918         3.54485
   C        5.67412         7.66957         3.53179
   C        4.76847         7.55911         2.43564
   C        4.83266         8.48623         1.37164
   C        3.79355         6.54248         2.45437
   C        3.70911         5.67619         3.51006
   C        4.60185         5.78142         4.58581
   C        5.56699         6.75240         4.59437
   C        7.47161        10.82958         2.36199
   O        8.41196        11.19718         3.01961
   C        6.78304        11.58381         1.26579
   C        6.82936        12.94506         1.18228
   C        5.74898        13.71391         0.68201
   C        5.73098        14.84981        -0.11361
   N        6.85685        15.56786        -0.55858
   O        6.66138        16.53911        -1.26428
   O        7.95368        15.18611        -0.18994
   C        4.38558        15.11498        -0.51732
   C        3.56935        14.14369        -0.00179
   C        4.35083        13.28187         0.81381
   C        3.93076        12.33439         1.74577
   C        4.50381        12.12659         3.02255
   C        3.82267        11.12147         3.65281
   C        2.83270        10.59297         2.77498
   N        2.06102         9.49823         3.17005
   O        2.37055         8.94704         4.21726
   O        1.12961         9.12224         2.46928
   C        2.85607        11.32821         1.57003
   C        2.36338        11.10906         0.28414
   C        1.65455        10.01681        -0.18169
   C        1.48811         9.77549        -1.54019
   C        1.88581        10.54881        -2.66252
   C        1.68215         9.87299        -3.90055
   N        2.03534        10.45421        -5.06166
   C        2.56613        11.64332        -4.98223
   C        2.73805        12.34264        -3.75778
   C        3.30921        13.71040        -3.72443
   N        2.39265        11.78549        -2.61407
   C        1.13343         8.58342        -3.74836
   S        0.85233         8.25248        -2.08285
   C        0.87909         7.60360        -4.76049
   C        0.43849         6.31972        -4.41444
   C        0.22667         5.36156        -5.38356
   N       -0.35893         4.11172        -4.94012
   O       -0.03844         3.71347        -3.84463
   O       -1.17082         3.58610        -5.66798
   C        0.46003         5.62570        -6.74551
   C        0.83864         6.93303        -7.08101
   C        1.05309         7.89651        -6.12447
   C        0.40097         4.61869        -7.78022
   C        0.86253         3.35762        -7.64451
   C        0.80742         2.42242        -8.71475
   C        1.34404         1.17374        -8.67311
   C        1.26899         0.15417        -9.70944
   C        0.77361         0.30993       -10.97688
   C        0.73196        -0.71937       -11.94228
   N        0.66996        -1.50805       -12.77375
   C        0.26258         1.50893       -11.51769
   N       -0.15458         2.44507       -12.03580
   C        1.85318        -1.06782        -9.17156
   C        2.34228        -0.80428        -7.85960
   C        2.07980         0.59943        -7.50798
   O        2.41081         1.16907        -6.49103
   C        2.95773        -1.76635        -7.11099
   C        3.11325        -3.06303        -7.64858
   C        2.62099        -3.33766        -8.95777
   C        1.98905        -2.32140        -9.70939
   C        2.78039        -4.63579        -9.48465
   C        3.39774        -5.61562        -8.75601
   C        3.88296        -5.34374        -7.46780
   C        3.74346        -4.09492        -6.92560
   H        7.32084         8.80040         4.37202
   H        4.12628         8.40149         0.55901
   H        3.10427         6.46984         1.62571
   H        2.94839         4.91087         3.52331
   H        4.51728         5.09340         5.41326
   H        6.25243         6.83980         5.42439
   H        7.69448        13.46039         1.58497
   H        4.10535        15.95058        -1.13032
   H        2.49886        14.11043        -0.07354
   H        5.28370        12.72816         3.44876
   H        3.97949        10.75896         4.65129
   H        2.65843        11.83257        -0.46454
   H        1.27300         9.27919         0.51146
   H        2.85750        12.09880        -5.91869
   H        4.37210        13.63783        -3.47894
   H        2.83728        14.29673        -2.94072
   H        3.20624        14.20549        -4.68543
   H        0.24905         6.06307        -3.38160
   H        1.00114         7.17007        -8.12146
   H        1.37077         8.88831        -6.40349
   H        0.04420         4.95168        -8.74711
   H        1.31713         3.02613        -6.72174
   H        0.27533         2.74239        -9.60117
   H        3.32120        -1.53876        -6.11989
   H        1.62577        -2.56307       -10.69551
   H        2.40603        -4.84002       -10.47699
   H        3.51599        -6.60632        -9.16846
   H        4.36767        -6.12900        -6.90734
   H        4.11468        -3.87980        -5.93436
*
