# ORCA input file
# SCF done       -202.479852043400          0.000393535977
! CAM-B3LYP def2-SVP def2/J RIJCOSX Grid4 TightSCF
%maxcore 5000
%tddft
    Mode sTDDFT
    Ethresh 5.0
    maxcore 5000
end

%pal
  nprocs 6
  end
* xyz 0 1
   C        2.13594         5.10252        -6.24860
   C        3.23879         4.33942        -5.96736
   C        4.09580         3.79822        -6.95002
   N        4.83194         3.32905        -7.69520
   C        3.68427         3.97405        -4.67963
   N        4.11131         3.63558        -3.66842
   C        1.68119         5.46736        -7.58624
   C        0.49055         6.24129        -7.46841
   C       -0.16722         6.73383        -8.55882
   C        0.34821         6.47199        -9.84741
   C        1.53829         5.69856        -9.97686
   C        2.19513         5.20012        -8.82791
   C        2.04503         5.44501       -11.26758
   C        1.40928         5.93234       -12.37738
   C        0.23837         6.69408       -12.24834
   C       -0.28158         6.95779       -11.00994
   C        0.15204         6.39209        -6.04941
   O       -0.80805         6.98209        -5.58777
   C        1.20694         5.69057        -5.29555
   C        1.30378         5.63956        -3.93402
   C        0.46964         6.20408        -2.94481
   S       -0.99795         7.11293        -3.17610
   C       -1.18091         7.34651        -1.46874
   C       -0.13689         6.73149        -0.75235
   C        0.77258         6.09131        -1.58938
   C        0.00766         6.73476         0.64573
   N        0.15360         6.72554         1.78429
   C       -2.27668         8.11200        -1.01091
   C       -2.49323         8.49384         0.27949
   C       -3.58443         9.30850         0.65381
   N       -3.77483         9.78838         1.92557
   C       -2.91415         9.57717         3.06623
   C       -1.68154        10.47605         3.02280
   C       -4.90987        10.61552         2.01235
   O       -5.26919        11.16019         3.03365
   C       -5.46129        10.60676         0.67051
   C       -4.63606         9.79658        -0.13374
   C       -5.19749         9.77355        -1.47140
   O       -4.83200         9.22489        -2.49154
   N       -6.33685        10.58310        -1.38296
   C       -7.21803        10.76746        -2.51328
   C       -8.46806         9.89990        -2.40122
   C       -6.50860        11.10049        -0.11878
   C       -7.53202        12.00620         0.21190
   C       -7.66587        12.58835         1.44436
   C       -8.65400        13.55941         1.67265
   C       -9.62035        14.08714         0.82440
   C      -10.31649        15.09895         1.53462
   C       -9.75192        15.14036         2.87737
   O      -10.02247        15.79036         3.84390
   O       -8.74379        14.18159         2.88227
   C      -11.28009        15.61876         0.68807
   O      -11.22242        14.95223        -0.50831
   C      -10.21098        14.01091        -0.49715
   O       -9.95772        13.32119        -1.45087
   C      -12.22119        16.65379         0.84504
   C      -12.20476        17.52814         1.89208
   C      -13.16200        18.56377         1.99630
   C      -13.06312        19.63081         2.84272
   C      -14.04246        20.68158         3.05191
   C      -15.27952        20.78095         2.46735
   C      -16.19171        21.82820         2.71737
   N      -16.97995        22.64862         2.87078
   C      -15.82795        19.87069         1.53988
   N      -16.34899        19.18031         0.78417
   C      -13.48740        21.62200         4.01921
   C      -12.19172        21.17263         4.40387
   C      -11.86199        19.93653         3.67490
   O      -10.81353        19.33332         3.70302
   C      -11.42441        21.85911         5.30006
   C      -11.92654        23.05256         5.86490
   C      -13.22094        23.51150         5.48440
   C      -13.99294        22.77792         4.55484
   C      -13.71003        24.70743         6.04880
   C      -12.95810        25.41703         6.94509
   C      -11.68412        24.96374         7.31929
   C      -11.17954        23.80631         6.79123
   H       -1.06760         7.31762        -8.43803
   H        3.09382         4.61995        -8.96308
   H        2.94669         4.85810       -11.36267
   H        1.80602         5.73338       -13.36153
   H       -0.24956         7.07104       -13.13459
   H       -1.18285         7.54348       -10.90367
   H        2.14969         5.10658        -3.51682
   H        1.63796         5.56125        -1.22957
   H       -2.97315         8.42943        -1.77769
   H       -1.80372         8.19385         1.05348
   H       -2.62356         8.52473         3.11551
   H       -3.51449         9.82092         3.94695
   H       -1.08066        10.27312         2.13920
   H       -1.07195        10.30025         3.90415
   H       -1.98190        11.52097         3.00873
   H       -6.64127        10.47431        -3.39469
   H       -7.49358        11.82096        -2.60036
   H       -8.19242         8.85038        -2.32781
   H       -9.08560        10.03926        -3.28333
   H       -9.05221        10.17343        -1.52628
   H       -8.22845        12.28020        -0.56859
   H       -7.00370        12.34143         2.26303
   H      -12.94384        16.76349         0.04669
   H      -11.43510        17.45316         2.64824
   H      -14.02218        18.49163         1.34222
   H      -10.44518        21.49464         5.57263
   H      -14.96733        23.15470         4.28771
   H      -14.69136        25.05245         5.75783
   H      -13.34096        26.33235         7.37092
   H      -11.10456        25.53649         8.02773
   H      -10.19941        23.45215         7.07507
*
