# ORCA input file
# SCF done       -195.301156950317          0.000813073301
! CAM-B3LYP def2-SVP def2/J RIJCOSX Grid4 TightSCF
%maxcore 5000
%tddft
    Mode sTDDFT
    Ethresh 5.0
    maxcore 5000
end

%pal
  nprocs 6
  end
* xyz 0 1
   C        3.71531         5.23205        -8.70555
   C        4.55327         4.22523        -9.09655
   C        4.25732         3.30382       -10.12301
   N        4.06294         2.53522       -10.95232
   C        5.78639         3.95637        -8.46420
   N        6.76975         3.67586        -7.94323
   C        2.36746         5.48575        -9.19162
   C        1.76504         6.48611        -8.37159
   C        0.48973         6.92382        -8.59288
   C       -0.25188         6.37446        -9.66197
   C        0.34522         5.37694       -10.48714
   C        1.66612         4.94164       -10.23478
   C       -0.40393         4.84034       -11.55377
   C       -1.68124         5.26752       -11.79635
   C       -2.26759         6.25028       -10.98472
   C       -1.56879         6.79131        -9.93975
   C        2.72370         6.93002        -7.35215
   O        2.55906         7.77470        -6.49532
   C        3.97843         6.18292        -7.63880
   C        5.17103         6.53768        -7.10678
   C        5.28296         7.46976        -6.02333
   C        5.94588         8.67831        -6.04286
   N        6.65584         9.18101        -7.14703
   O        7.26232        10.22563        -7.00813
   O        6.61801         8.53069        -8.18128
   C        5.72452         9.37456        -4.80093
   C        4.89706         8.62079        -4.03806
   C        4.59619         7.39327        -4.73821
   C        3.96998         6.27058        -4.24006
   C        4.25300         4.91929        -4.59642
   C        3.69531         4.09486        -3.66243
   C        2.96394         4.88157        -2.71709
   N        2.21392         4.32070        -1.67489
   O        1.60411         5.06719        -0.92153
   O        2.21559         3.10506        -1.57214
   C        3.06083         6.22910        -3.07452
   C        2.32351         7.30394        -2.56176
   C        2.02915         8.44216        -3.27491
   C        1.29792         9.50231        -2.72736
   S        0.75571        10.85484        -3.69512
   C       -0.02318        11.66774        -2.35867
   C        0.13861        10.90581        -1.19228
   C        0.86773         9.71586        -1.41489
   O        1.00048         9.01798        -0.27847
   C        0.35949         9.73112         0.67651
   C       -0.18345        10.88105         0.19641
   C       -0.67973        12.89153        -2.58304
   C       -1.25271        13.65728        -1.61570
   C       -1.91850        14.86994        -1.91487
   S       -2.58850        15.91069        -0.66301
   C       -3.10954        16.94870        -1.99145
   N       -2.76557        16.46802        -3.15525
   N       -2.12048        15.34753        -3.11706
   C       -3.82348        18.15355        -1.76780
   C       -4.30628        18.92908        -2.77077
   C       -5.02328        20.11945        -2.48894
   C       -5.59035        20.93602        -3.42065
   C       -6.34070        22.15548        -3.16549
   C       -6.52007        22.77226        -1.95480
   C       -7.25441        23.96434        -1.77452
   N       -7.83708        24.92838        -1.55381
   C       -6.00118        22.33280        -0.71860
   N       -5.61504        22.04888         0.32525
   C       -6.86020        22.63253        -4.44137
   C       -6.40691        21.76341        -5.47483
   C       -5.58657        20.68868        -4.89221
   O       -5.03628        19.79028        -5.48933
   C       -6.73970        21.96298        -6.78392
   C       -7.56191        23.05914        -7.12690
   C       -8.02363        23.93137        -6.09870
   C       -7.65892        23.70210        -4.75275
   C       -8.84893        25.01913        -6.45049
   C       -9.20252        25.23603        -7.75430
   C       -8.74671        24.37716        -8.76585
   C       -7.94337        23.31243        -8.45912
   H        0.05264         7.68331        -7.96152
   H        2.09717         4.19300       -10.88085
   H        0.05146         4.08378       -12.17551
   H       -2.24684         4.85056       -12.61586
   H       -3.27552         6.57693       -11.19195
   H       -2.01506         7.54859        -9.31201
   H        6.09688         6.18144        -7.54303
   H        6.15869        10.32783        -4.56866
   H        4.59025         8.82769        -3.03144
   H        4.90848         4.62024        -5.39208
   H        3.77214         3.02489        -3.60957
   H        1.88144         7.16723        -1.58271
   H        2.30348         8.51690        -4.31809
   H        0.35847         9.31299         1.66414
   H       -0.73618        11.59967         0.76353
   H       -0.72416        13.24691        -3.60299
   H       -1.21218        13.36704        -0.57812
   H       -3.98183        18.43503        -0.73465
   H       -4.15108        18.63515        -3.79812
   H       -5.12723        20.37340        -1.44124
   H       -6.38107        21.28939        -7.54802
   H       -8.02715        24.37986        -3.99929
   H       -9.19661        25.67783        -5.66830
   H       -9.83582        26.07104        -8.01369
   H       -9.03575        24.56344        -9.78929
   H       -7.58955        22.64795        -9.23365
*
