# ORCA input file
# SCF done       -212.208854289663          0.000851805630
! CAM-B3LYP def2-SVP def2/J RIJCOSX Grid4 TightSCF
%maxcore 5000
%tddft
    Mode sTDDFT
    Ethresh 5.0
    maxcore 5000
end

%pal
  nprocs 6
  end
* xyz 0 1
   C       -0.65521         4.65015        -4.02694
   C       -0.40378         5.82320        -3.36463
   C       -0.72314         7.09676        -3.87438
   N       -0.98173         8.15160        -4.24538
   C        0.30946         5.85606        -2.14920
   N        0.94780         5.88605        -1.19554
   C       -1.07470         4.52153        -5.41524
   C       -0.70159         3.22501        -5.87996
   C       -0.92442         2.83773        -7.17001
   C       -1.54688         3.73904        -8.06315
   C       -1.93409         5.03013        -7.59951
   C       -1.68628         5.40776        -6.25995
   C       -2.55601         5.91728        -8.50131
   C       -2.78211         5.55097        -9.80014
   C       -2.39981         4.28051       -10.25611
   C       -1.79558         3.39411        -9.40630
   C       -0.08565         2.46490        -4.77665
   O        0.40651         1.36144        -4.80726
   C       -0.25284         3.33274        -3.57403
   C       -0.12743         2.82335        -2.32433
   C       -0.65399         3.36440        -1.11611
   S       -2.15056         4.26691        -1.09369
   C       -2.07984         4.46031         0.63934
   C       -0.97114         3.83388         1.15158
   C       -0.17213         3.22123         0.16493
   C        1.16911         2.69941         0.58204
   C        1.04035         1.43297         1.26555
   N        0.93540         0.42485         1.79435
   C        1.78221         3.78251         1.49968
   C        0.91317         4.10496         2.72484
   C       -0.55428         3.63622         2.57410
   O       -1.45366         4.26763         3.45038
   C       -1.23353         3.99314         4.81149
   C       -3.02131         5.29618         1.32649
   N       -4.38169         5.22604         1.17703
   C       -5.11570         4.21636         0.45455
   C       -4.96530         2.83950         1.09398
   C       -5.04156         6.19824         1.96633
   O       -6.24854         6.30276         2.02111
   C       -3.96390         6.92423         2.59288
   C       -2.73463         6.34554         2.17985
   C       -1.66449         7.11417         2.77876
   O       -0.45767         7.02867         2.73204
   N       -2.33054         8.11499         3.52212
   C       -1.55495         9.05320         4.29685
   C       -1.15587        10.27588         3.47229
   C       -3.69844         8.01954         3.40803
   C       -4.72150         8.82782         3.97412
   C       -4.63151        10.07197         4.50088
   C       -5.73470        10.83380         5.00543
   C       -5.56436        12.20259         5.23737
   N       -6.50531        13.04292         5.61286
   C       -7.73818        12.60617         5.83544
   C       -8.05080        11.21519         5.70650
   C       -7.03536        10.31406         5.28523
   N       -7.30465         8.99772         5.18779
   C       -8.52268         8.60193         5.44070
   C       -9.53434         9.50371         5.82496
   N       -9.29610        10.77948         5.97221
   C       -8.75825        13.54444         6.19213
   C       -8.54398        14.88445         6.22454
   C       -9.57463        15.79687         6.55291
   C       -9.45229        17.15654         6.52427
   C      -10.48644        18.12884         6.83138
   C      -11.72981        17.87344         7.35019
   C      -12.68642        18.86971         7.63802
   N      -13.51185        19.62560         7.89440
   C      -12.23625        16.60246         7.69366
   N      -12.72726        15.61283         8.00804
   C       -9.95980        19.45368         6.52073
   C       -8.60983        19.31758         6.08966
   C       -8.23053        17.89360         6.09707
   O       -7.14710        17.43583         5.80501
   C       -7.85349        20.39518         5.72966
   C       -8.42499        21.68602         5.78020
   C       -9.77705        21.83154         6.20519
   C      -10.53437        20.69654         6.57513
   C      -10.33957        23.12371         6.24750
   C       -9.60356        24.21982         5.88850
   C       -8.27206        24.07514         5.47074
   C       -7.69536        22.83525         5.41788
   H       -0.62709         1.85599        -7.50752
   H       -1.99438         6.38745        -5.92845
   H       -2.84556         6.89541        -8.14632
   H       -3.25636         6.23884       -10.48395
   H       -2.58628         4.00775       -11.28399
   H       -1.49895         2.41473        -9.75212
   H        0.35194         1.85172        -2.24895
   H        1.81562         2.54583        -0.28877
   H        1.89187         4.67674         0.88448
   H        2.77443         3.46287         1.82134
   H        0.88433         5.18472         2.87533
   H        1.33264         3.63476         3.61546
   H       -0.58929         2.54494         2.76864
   H       -2.10308         4.38005         5.34023
   H       -0.33386         4.49120         5.18657
   H       -1.14855         2.91409         4.98958
   H       -4.78579         4.19307        -0.58881
   H       -6.16188         4.53398         0.48642
   H       -3.92519         2.52040         1.08506
   H       -5.55785         2.11236         0.54601
   H       -5.30896         2.86694         2.12498
   H       -0.64624         8.52467         4.60199
   H       -2.11694         9.33196         5.19061
   H       -0.51799         9.96511         2.64888
   H       -0.60602        10.97853         4.09279
   H       -2.02844        10.77645         3.05777
   H       -5.70131         8.37284         3.90954
   H       -3.69388        10.60920         4.49920
   H       -4.59257        12.65536         5.07965
   H       -8.71145         7.54075         5.35304
   H      -10.54169         9.17002         6.03311
   H       -9.72897        13.12412         6.41860
   H       -7.56353        15.26439         5.97701
   H      -10.52999        15.36359         6.82291
   H       -6.83136        20.26271         5.40713
   H      -11.55579        20.84189         6.88872
   H      -11.36491        23.23014         6.57019
   H      -10.04344        25.20524         5.92429
   H       -7.70598        24.95101         5.19076
   H       -6.67076        22.71720         5.09661
*
