# ORCA input file
# SCF done       -227.497837702503          0.000474644943
! CAM-B3LYP def2-SVP def2/J RIJCOSX Grid4 TightSCF
%maxcore 5000
%tddft
    Mode sTDDFT
    Ethresh 5.0
    maxcore 5000
end

%pal
  nprocs 6
  end
* xyz 0 1
   C      -11.41876        -0.66632         1.00419
   N      -10.75827         0.42892         0.56206
   C      -10.55465         0.79942        -0.81737
   C      -11.81628         1.40574        -1.42536
   C      -10.33783         1.24408         1.63908
   O       -9.73541         2.29062         1.48774
   C      -10.78543         0.53337         2.81453
   C      -11.45492        -0.64311         2.37712
   C      -11.89776        -1.37394         3.55400
   O      -12.49629        -2.41383         3.68469
   N      -11.44878        -0.58302         4.63254
   C      -11.72747        -0.95957         6.00005
   C      -12.83977        -0.11571         6.61550
   C      -10.78985         0.54457         4.21561
   C      -10.21370         1.48362         5.10045
   C       -9.55315         2.58250         4.62853
   C       -8.92736         3.61928         5.35372
   C       -9.13146         4.16582         6.62377
   N       -9.94178         3.73739         7.68989
   O      -10.37678         2.59465         7.69410
   O      -10.16323         4.54271         8.57580
   C       -8.41995         5.40826         6.71694
   C       -7.78472         5.65555         5.53763
   C       -8.02172         4.55971         4.65493
   C       -7.40596         4.30043         3.44283
   C       -7.10199         3.00480         2.92954
   C       -6.32774         3.14704         1.81707
   C       -6.15626         4.53724         1.53436
   N       -5.37530         4.93299         0.42911
   O       -4.95560         6.07609         0.37457
   O       -5.13159         4.07882        -0.40418
   C       -6.82958         5.29079         2.50493
   C       -7.19605         6.64612         2.58101
   C       -6.87012         7.67597         1.73877
   C       -7.30919         8.99054         1.95099
   S       -8.19128         9.50877         3.39124
   C       -8.24891        11.18274         2.87812
   C       -7.62572        11.29094         1.64222
   C       -7.11022        10.09645         1.13209
   C       -6.51451        10.39824        -0.17660
   O       -5.99038         9.69946        -0.98377
   O       -6.68398        11.76572        -0.37033
   C       -7.34167        12.35914         0.68118
   O       -7.59364        13.52704         0.72871
   C       -8.81798        12.24720         3.59283
   C       -9.37835        12.15841         4.83425
   C       -9.90983        13.26021         5.53448
   C      -10.01951        13.40308         6.92262
   N       -9.76664        12.43833         7.91230
   O       -9.89358        12.78420         9.07384
   O       -9.43696        11.31417         7.56562
   C      -10.37161        14.75233         7.23081
   C      -10.45489        15.46165         6.06766
   C      -10.23976        14.57208         4.96774
   C      -10.52117        14.85920         3.63906
   C      -11.14385        13.98876         2.70143
   C      -11.53932        14.72022         1.61567
   C      -11.10731        16.06886         1.78259
   N      -11.26298        17.04988         0.78351
   O      -10.66624        18.10500         0.90325
   O      -11.99676        16.77593        -0.14954
   C      -10.45408        16.19491         3.01065
   C       -9.72347        17.29699         3.48196
   C       -8.67370        17.18733         4.35881
   C       -7.92236        18.28471         4.80926
   N       -6.76123        18.16950         5.53802
   C       -6.18059        16.94669         6.04131
   C       -6.91410        16.43928         7.28039
   C       -6.16515        19.41477         5.79045
   O       -5.13097        19.55334         6.40755
   C       -7.05889        20.37179         5.16302
   C       -8.13025        19.65516         4.59266
   C       -9.04252        20.61070         3.99931
   O      -10.11508        20.48895         3.45569
   N       -8.41435        21.86335         4.21434
   C       -9.04058        23.08633         3.77164
   C       -9.73951        23.81337         4.91765
   C       -7.24739        21.73545         4.90749
   C       -6.40104        22.83781         5.25346
   C       -5.27459        22.69314         5.95883
   H      -11.81226        -1.39496         0.31971
   H      -10.24615        -0.08519        -1.38083
   H       -9.74522         1.53398        -0.82789
   H      -12.63880         0.69454        -1.39472
   H      -11.62971         1.67954        -2.45960
   H      -12.10571         2.29835        -0.87621
   H      -10.81383        -0.88100         6.59498
   H      -12.03675        -2.00778         5.96053
   H      -12.53347         0.92148         6.72266
   H      -13.08299        -0.50380         7.60018
   H      -13.73163        -0.16010         5.99486
   H      -10.28857         1.30156         6.16015
   H       -9.48144         2.69260         3.55395
   H       -8.41008         6.01586         7.60234
   H       -7.10815         6.46739         5.35455
   H       -7.33318         2.07921         3.41870
   H       -5.88629         2.36782         1.22482
   H       -7.86090         6.89111         3.40101
   H       -6.23475         7.52730         0.87568
   H       -8.74583        13.20278         3.08896
   H       -9.34043        11.21466         5.36497
   H      -10.53581        15.11171         8.22899
   H      -10.75846        16.48581         5.96622
   H      -11.36630        12.95554         2.88583
   H      -12.07842        14.37008         0.75565
   H       -9.95776        18.26242         3.04661
   H       -8.35042        16.20380         4.66835
   H       -5.14635        17.18859         6.30086
   H       -6.17660        16.19114         5.25084
   H       -6.86497        17.18310         8.07161
   H       -6.44564        15.52613         7.63624
   H       -7.96018        16.23317         7.06335
   H       -9.77846        22.79175         3.02025
   H       -8.29353        23.72911         3.29862
   H      -10.50788        23.17645         5.34868
   H      -10.21006        24.71775         4.54288
   H       -9.03387        24.08382         5.70021
   H       -6.70802        23.81569         4.90961
   H       -4.94743        21.72984         6.31442
   H       -4.65512        23.54112         6.19454
*
