# ORCA input file
# SCF done       -195.339763587147          0.000593801140
! CAM-B3LYP def2-SVP def2/J RIJCOSX Grid4 TightSCF
%maxcore 5000
%tddft
    Mode sTDDFT
    Ethresh 5.0
    maxcore 5000
end

%pal
  nprocs 6
  end
* xyz 0 1
   C      -15.48229         7.60623        -2.16118
   C      -16.33794         7.61910        -1.09061
   C      -17.73037         7.41832        -1.18333
   N      -18.86727         7.26077        -1.19580
   C      -15.93073         7.85127         0.23868
   N      -15.63875         8.04326         1.33220
   C      -15.85373         7.38814        -3.55533
   C      -14.69417         7.50695        -4.36840
   C      -14.72575         7.34563        -5.73373
   C      -15.95672         7.04147        -6.32129
   C      -17.10752         6.92454        -5.50574
   C      -17.07709         7.09601        -4.12622
   S      -18.51614         6.54126        -6.44455
   C      -17.55203         6.53928        -7.89962
   C      -16.24242         6.81462        -7.69493
  Br      -18.37144         6.17864        -9.54581
   C      -13.54607         7.78521        -3.51033
   O      -12.37627         7.95655        -3.85591
   C      -14.05153         7.81751        -2.13055
   C      -13.21279         7.98298        -1.05593
   N      -11.89854         8.11913        -1.27657
   C      -10.87533         8.22076        -0.39785
   S      -11.10290         8.42649         1.30558
   C       -9.37821         8.41464         1.51212
   N       -8.87726         8.56067         2.81286
   O       -7.66926         8.55077         2.95584
   O       -9.69737         8.68684         3.70440
   C       -8.67946         8.25440         0.34495
   C       -9.52278         8.14324        -0.77388
   C       -9.14528         7.91380        -2.13841
   C       -7.93872         7.59273        -2.63896
   C       -7.81023         7.28911        -4.03663
   S       -6.38971         7.71283        -4.93486
   C       -7.09024         7.20282        -6.44294
   C       -8.36261         6.70771        -6.23168
   C       -8.75663         6.73197        -4.87680
   S      -10.16086         5.87145        -4.23898
   C      -11.36723         5.83498        -5.50869
   O      -12.41537         5.28321        -5.29349
   C      -11.09702         6.41964        -6.87423
   O      -12.00316         6.75736        -7.58593
   S       -9.46331         6.34214        -7.56472
   C       -6.34007         7.35059        -7.66715
   C       -5.33964         8.33168        -7.74323
   C       -4.62871         8.48302        -8.90587
   C       -4.89489         7.66561       -10.01874
   C       -5.86988         6.68086        -9.94566
   C       -6.58063         6.52654        -8.77253
   C       -3.99237         8.03521       -11.08437
   C       -3.16111         9.07710       -10.63095
   C       -3.54932         9.49297        -9.22922
   C       -4.22006        10.88752        -9.20957
   C       -3.35880        12.04655        -9.69310
   C       -2.37241         9.41507        -8.24621
   C       -1.78600         8.01085        -8.15564
   C       -2.15312         9.55942       -11.42779
   C       -1.98252         9.04977       -12.72728
   C       -2.84813         8.03591       -13.17229
   C       -3.83548         7.51742       -12.36328
   C       -0.97180         9.52683       -13.63074
   C       -0.00847        10.44284       -13.35541
   C        0.97387        10.93584       -14.24533
   C        1.15421        10.69538       -15.58186
   C        2.18903        11.27990       -16.36598
   C        2.17856        10.93293       -17.67733
   C        1.13102        10.04433       -18.02820
   S        0.16772         9.66832       -16.61065
   C        0.84736         9.51635       -19.26302
   C        1.54922         9.74202       -20.48137
   C        1.03853         9.09012       -21.54813
   C       -0.11688         8.28923       -21.25783
   S       -0.50050         8.42808       -19.53443
   C       -0.83009         7.54005       -22.10890
   H      -13.83704         7.43229        -6.33756
   H      -17.97900         6.99318        -3.54620
   H      -15.50049         6.85097        -8.47159
   H      -13.55782         7.98915        -0.03030
   H      -11.66804         8.08754        -2.28836
   H       -7.60598         8.22672         0.31423
   H       -9.94971         7.98389        -2.85479
   H       -7.04093         7.58350        -2.04000
   H       -5.14887         8.96028        -6.88514
   H       -6.06669         6.03545       -10.78777
   H       -7.31240         5.73763        -8.69717
   H       -4.54181        11.08531        -8.18444
   H       -5.11692        10.83570        -9.83259
   H       -2.44388        12.13099        -9.11262
   H       -3.91373        12.97578        -9.58241
   H       -3.10506        11.92965       -10.74300
   H       -2.71523         9.73117        -7.25865
   H       -1.59175        10.10533        -8.56782
   H       -2.53414         7.30227        -7.80713
   H       -0.94969         7.99765        -7.46056
   H       -1.43023         7.68163        -9.12951
   H       -1.48727        10.32376       -11.06116
   H       -2.71885         7.64929       -14.17294
   H       -4.47459         6.72223       -12.71697
   H       -1.00510         9.08777       -14.61749
   H        0.05007        10.85511       -12.35676
   H        1.69124        11.62403       -13.81367
   H        2.90839        11.94579       -15.92170
   H        2.88727        11.28902       -18.40329
   H        2.41123        10.38438       -20.51864
   H        1.43321         9.13966       -22.54748
   H       -0.56183         7.48547       -23.14918
   H       -1.68522         6.97529       -21.78595
*
