# ORCA input file
# SCF done       -227.831422389831          0.000636411631
! CAM-B3LYP def2-SVP def2/J RIJCOSX Grid4 TightSCF
%maxcore 5000
%tddft
    Mode sTDDFT
    Ethresh 5.0
    maxcore 5000
end

%pal
  nprocs 6
  end
* xyz 0 1
   C       -5.86202        -1.61116         2.92160
   C       -5.06079        -2.50953         2.27024
   C       -4.82061        -3.82512         2.72075
   N       -4.59615        -4.90520         3.03712
   C       -4.33879        -2.23745         1.08794
   N       -3.70712        -2.08416         0.14170
   C       -6.53485        -1.83295         4.19302
   C       -7.12828        -0.61677         4.61076
   C       -7.83559        -0.50151         5.78335
   C       -7.96385        -1.64156         6.58242
   C       -7.37199        -2.85513         6.15448
   C       -6.65701        -2.97132         4.96947
   S       -7.65907        -4.14007         7.28770
   C       -8.55463        -3.04575         8.30820
   C       -8.63681        -1.78248         7.82647
  Br       -9.29773        -3.67401         9.91100
   C       -6.86944         0.43607         3.61007
   O       -7.25784         1.58188         3.66640
   C       -6.12317        -0.23756         2.51145
   C       -5.94131         0.25986         1.26142
   C       -6.15433         1.61945         0.83479
   C       -5.80392         2.71273         1.64114
   C       -6.07733         3.98381         1.20001
   C       -6.74000         4.18721        -0.02497
   C       -7.03414         3.11442        -0.85622
   C       -6.71232         1.84226        -0.43275
   C       -7.05085         5.59476        -0.15342
   C       -6.58130         6.25840         0.99352
   C       -5.79184         5.30831         1.86911
   C       -6.21509         5.35770         3.34107
   C       -7.68949         5.02343         3.53285
   C       -4.30176         5.69038         1.68494
   C       -3.29715         4.76402         2.35729
   C       -6.83695         7.59398         1.18234
   C       -7.57304         8.29950         0.21946
   C       -7.97373         7.64220        -0.94919
   C       -7.72943         6.29635        -1.13952
   C       -7.94447         9.68723         0.41872
   C       -8.10850        10.23199         1.63165
   N       -8.48455        11.54177         1.84503
   C       -8.66706        12.12554         3.05356
   S       -9.82624        13.41614         3.18290
   C       -9.61334        13.42845         4.90851
   N      -10.34592        14.36906         5.64217
   O      -10.21165        14.37378         6.85043
   O      -11.07117        15.11075         5.00173
   C       -8.71259        12.50056         5.34731
   C       -8.11838        11.76662         4.29905
   C       -7.01888        10.87409         4.53531
   C       -6.00564        10.65967         3.66179
   C       -4.94481         9.74544         3.84977
   S       -4.88404         8.61698         5.15398
   C       -3.37199         7.94039         4.64062
   C       -2.94725         8.54778         3.45099
   C       -3.83507         9.57586         3.00017
   C       -3.53207        10.28587         1.83101
   C       -2.41379         9.96410         1.10244
   N       -2.05022        10.82779         0.00073
   O       -2.95698        11.37235        -0.58675
   O       -0.87066        10.98726        -0.20205
   C       -1.59250         8.87658         1.49343
   N       -0.54797         8.34816         0.63858
   O       -0.75681         8.35283        -0.54930
   O        0.41233         7.86813         1.19644
   C       -1.85512         8.18426         2.64467
   C       -2.78068         6.87497         5.35454
   C       -1.46615         6.52219         5.40824
   C       -0.24319         7.23028         5.08664
   C       -0.05134         8.58749         5.12662
   C        1.20424         9.20852         4.95592
   N        2.20050         9.76494         4.84098
   C       -1.06853         9.51068         5.43142
   N       -1.87284        10.28995         5.68616
   C        0.80839         6.23250         4.94900
   C        0.31357         4.97963         5.39720
   C       -1.10001         5.12530         5.78614
   O       -1.84447         4.29055         6.24594
   C        1.09026         3.84598         5.40615
   C        2.40584         3.95266         4.94173
   C        2.88029         5.20468         4.47578
   C        2.09902         6.35355         4.47243
   S        4.52372         5.10384         3.93053
   C        4.55856         3.40865         4.33573
   C        3.39606         2.93815         4.84989
  Br        6.12255         2.41907         4.04382
   H       -8.27521         0.43973         6.07406
   H       -6.23040        -3.91815         4.68342
   H       -9.15102        -0.98215         8.32647
   H       -5.66689        -0.43159         0.47292
   H       -5.31997         2.54250         2.58852
   H       -7.51176         3.27039        -1.81142
   H       -6.94152         0.99234        -1.05897
   H       -6.01028         6.35945         3.72865
   H       -5.61864         4.64675         3.91244
   H       -8.31631         5.66521         2.91678
   H       -7.96952         5.16236         4.57436
   H       -7.87822         3.98755         3.26564
   H       -4.17175         6.70715         2.06268
   H       -4.09224         5.71188         0.61209
   H       -3.42766         4.74115         3.43605
   H       -2.28675         5.10941         2.14609
   H       -3.38882         3.75307         1.97086
   H       -6.47095         8.10558         2.06023
   H       -8.51540         8.19772        -1.70059
   H       -8.07047         5.80010        -2.03515
   H       -8.14051        10.27355        -0.46915
   H       -7.98816         9.64824         2.52894
   H       -8.82228        12.05150         1.03769
   H       -8.45536        12.38805         6.38519
   H       -6.98391        10.41024         5.51257
   H       -5.98024        11.21619         2.73603
   H       -4.14887        11.10465         1.49436
   H       -1.24531         7.32929         2.89000
   H       -3.45964         6.21182         5.88263
   H        0.69651         2.90517         5.75727
   H        2.48962         7.28198         4.09036
   H        3.24303         1.91804         5.15130
*
