# ORCA input file
# SCF done       -232.754855104099          0.000909302777
! CAM-B3LYP def2-SVP def2/J RIJCOSX Grid4 TightSCF
%maxcore 5000
%tddft
    Mode sTDDFT
    Ethresh 5.0
    maxcore 5000
end

%pal
  nprocs 6
  end
* xyz 0 1
   C       -2.73591        -1.28540        -1.11498
   C       -3.26445        -2.50855        -1.42735
   C       -2.49029        -3.65038        -1.72398
   N       -1.90829        -4.60857        -1.96903
   C       -4.64607        -2.77836        -1.53780
   N       -5.74880        -3.06513        -1.67578
   C       -1.32192        -0.93783        -1.10142
   C       -1.19751         0.45722        -0.88636
   C        0.02038         1.09075        -0.82383
   C        1.17056         0.31234        -0.98581
   C        1.03695        -1.08173        -1.19722
   C       -0.19395        -1.72289        -1.25712
   S        2.58428        -1.85365        -1.36114
   C        3.37896        -0.31591        -1.14957
   C        2.53091         0.72395        -0.96453
  Br        5.25121        -0.22791        -1.19083
   C       -2.53404         1.05678        -0.71994
   O       -2.77084         2.21098        -0.43556
   C       -3.49353        -0.07623        -0.83880
   C       -4.81172         0.00092        -0.52357
   C       -5.53566         1.23035        -0.39886
   C       -6.48226         1.41287         0.62696
   C       -7.10319         2.69234         0.86573
   N       -7.99533         2.81854         1.86228
   C       -8.25483         1.79001         2.62744
   C       -7.59536         0.53017         2.41934
   N       -6.74583         0.37191         1.43963
   C       -7.87797        -0.56157         3.28010
   N       -8.12644        -1.41403         4.00294
   C       -9.20699         1.92858         3.66866
   N       -9.96173         2.01267         4.52593
   C       -6.81836         3.82361         0.06625
   C       -5.99916         3.58910        -1.05374
   C       -5.35909         2.31198        -1.27832
   N       -4.62773         2.31105        -2.39417
   S       -4.68781         3.76476        -3.05470
   N       -5.65877         4.47322        -2.00040
   C       -7.27430         5.15608         0.40702
   C       -7.58365         6.07293        -0.61080
   C       -7.89218         7.36971        -0.28491
   C       -7.95010         7.76194         1.06583
   C       -7.68560         6.85262         2.08202
   C       -7.34104         5.56145         1.74776
   C       -8.28267         9.16323         1.12548
   C       -8.44846         9.64575        -0.18667
   C       -8.23866         8.53176        -1.19503
   C       -7.06414         8.93658        -2.11120
   C       -6.63324         7.91131        -3.15286
   C       -9.53091         8.16573        -1.95515
   C      -10.09000         9.24240        -2.87589
   C       -8.68348        10.98335        -0.39659
   C       -8.75683        11.86374         0.69673
   C       -8.63208        11.35227         1.99794
   C       -8.39940        10.01353         2.21852
   C       -8.93291        13.27278         0.45147
   C       -8.55025        14.25268         1.30375
   C       -8.68108        15.64662         1.07877
   C       -8.12070        16.62732         1.86445
   C       -8.47492        17.90546         1.34829
   C       -9.31694        17.62054         0.17701
   C       -9.43121        16.29790        -0.00420
   F       -9.85361        18.57673        -0.59000
   C       -8.10642        19.14309         1.81781
   C       -8.51773        20.43041         1.35819
   C       -7.90014        21.39951         2.11943
   C       -7.03889        20.73422         3.10071
   C       -7.18405        19.41295         2.92335
   F       -6.56926        18.44943         3.61923
   C       -8.11478        22.79361         2.01762
   C       -7.40280        23.74090         2.68731
   C       -7.62308        25.13674         2.60261
   C       -8.76442        25.82904         2.32227
   C      -10.16431        25.46354         2.27815
   C      -10.77815        24.45674         2.97862
   C      -12.16901        24.22585         2.96733
   N      -13.29087        23.98245         2.97746
   C      -10.11650        23.58452         3.86569
   N       -9.64540        22.87713         4.63702
   C      -10.86736        26.52663         1.56411
   C       -9.97991        27.61611         1.37692
   C       -8.65249        27.25620         1.91157
   O       -7.66294        27.94940         1.97225
   C      -10.36763        28.78973         0.77730
   C      -11.69005        28.88930         0.33239
   C      -12.56320        27.78881         0.50706
   C      -12.17317        26.60384         1.11908
   S      -14.14689        28.12292        -0.12360
   C      -13.62468        29.71680        -0.60109
   C      -12.33043        29.98580        -0.30739
  Br      -14.83751        30.87368        -1.44206
   H        0.08333         2.15449        -0.65561
   H       -0.24486        -2.78788        -1.41113
   H        2.85029         1.73943        -0.81693
   H       -5.36999        -0.89582        -0.28666
   H       -7.58869         5.73163        -1.63166
   H       -7.73069         7.15488         3.11703
   H       -7.08625         4.85996         2.52564
   H       -6.21004         9.16194        -1.46678
   H       -7.33875         9.86333        -2.61780
   H       -6.21228         7.02669        -2.68460
   H       -5.86650         8.35165        -3.78734
   H       -7.46462         7.61712        -3.78783
   H      -10.28948         7.91158        -1.20982
   H       -9.33469         7.26398        -2.53719
   H      -10.40437        10.11449        -2.30969
   H      -10.96088         8.85094        -3.39749
   H       -9.36047         9.54660        -3.62162
   H       -8.76979        11.38822        -1.39380
   H       -8.73321        12.01926         2.83982
   H       -8.29511         9.63253         3.22299
   H       -9.34233        13.54069        -0.51339
   H       -8.05678        13.98693         2.22931
   H       -7.51361        16.46322         2.73268
   H       -9.98197        15.79632        -0.77504
   H       -9.21050        20.60326         0.55757
   H       -6.43727        21.22250         3.84044
   H       -8.88719        23.10541         1.32448
   H       -6.54338        23.43337         3.26617
   H       -6.74773        25.76741         2.73462
   H       -9.67370        29.60676         0.65732
   H      -12.87206        25.79080         1.22507
   H      -11.84560        30.91846        -0.53088
*
