# ORCA input file
# SCF done       -237.639163069402          0.000941296221
! CAM-B3LYP def2-SVP def2/J RIJCOSX Grid4 TightSCF
%maxcore 5000
%tddft
    Mode sTDDFT
    Ethresh 5.0
    maxcore 5000
end

%pal
  nprocs 6
  end
* xyz 0 1
   C       -0.70578         0.87673         0.98797
   C       -0.69264        -0.12200         1.92727
   C        0.43810        -0.90682         2.23091
   N        1.33141        -1.56709         2.51998
   C       -1.82384        -0.51439         2.67263
   N       -2.71699        -0.89773         3.28390
   C        0.38868         1.23813         0.09662
   C       -0.07783         2.20521        -0.82825
   C        0.72312         2.73837        -1.80806
   C        2.04761         2.29324        -1.88152
   C        2.50633         1.33122        -0.94990
   C        1.69646         0.79394         0.04311
   S        4.17522         0.92877        -1.21619
   C        4.23279         2.03931        -2.55910
   C        3.06375         2.68080        -2.79679
  Br        5.82995         2.24760        -3.51938
   C       -1.49378         2.51785        -0.54479
   O       -2.18036         3.34924        -1.10032
   C       -1.84776         1.69027         0.63360
   C       -2.97919         1.88427         1.37908
   C       -4.11732         2.60046         0.94882
   S       -4.94602         3.60727         2.11732
   C       -5.99199         4.29072         0.92292
   C       -5.74169         3.71130        -0.31009
   C       -4.71083         2.73233        -0.30683
   O       -4.54082         2.00966        -1.41263
   C       -3.97142         0.71469        -1.36400
   C       -4.58420        -0.09308        -2.49737
   O       -6.44551         4.00481        -1.44586
   N       -7.23026         2.93483        -1.99241
   O       -7.71059         3.21115        -3.02834
   O       -7.30028         1.95483        -1.33830
   C       -6.92688         5.29880         1.29575
   C       -7.63576         6.04590         0.42223
   C       -8.58579         7.07786         0.75306
   C       -8.98896         7.34182         2.07292
   C       -9.88751         8.34953         2.33075
   C      -10.40795         9.10894         1.26198
   C      -10.02581         8.85436        -0.04902
   C       -9.12264         7.84333        -0.29315
   C      -11.32671        10.08892         1.78634
   C      -11.38372         9.94000         3.18259
   C      -10.49099         8.80235         3.64506
   C      -11.42948         7.72655         4.24181
   C      -10.77493         6.47106         4.80053
   C       -9.47734         9.36386         4.67132
   C       -8.11190         8.69066         4.74416
   C      -12.17733        10.76726         3.93535
   C      -12.96060        11.75326         3.30515
   C      -12.89323        11.88286         1.90632
   C      -12.08275        11.06723         1.14898
   C      -13.79828        12.57822         4.12703
   C      -14.74689        13.44235         3.68620
   C      -15.57787        14.23753         4.52010
   C      -16.62096        15.00211         3.92767
   C      -17.57113        15.74663         4.71288
   N      -18.50276        16.49151         4.09456
   C      -18.59998        16.45600         2.79008
   C      -17.70440        15.65260         2.01366
   N      -16.73344        14.98929         2.59350
   C      -17.82987        15.60675         0.60336
   N      -17.95087        15.59435        -0.53562
   C      -19.61882        17.23153         2.18130
   N      -20.46702        17.83401         1.70256
   C      -17.53916        15.74514         6.12402
   C      -16.45196        15.06884         6.70838
   C      -15.49590        14.31450         5.92933
   N      -14.59180        13.72460         6.71632
   S      -14.91197        14.07455         8.24751
   N      -16.20518        14.98756         8.01655
   C      -18.50757        16.41778         6.92763
   C      -19.79976        16.68534         6.61357
   C      -20.65567        16.18960         5.55246
   C      -20.63347        14.93224         5.00668
   C      -21.55734        14.47730         4.04438
   N      -22.26832        14.06096         3.24548
   C      -19.68229        13.95194         5.34774
   N      -18.91561        13.12916         5.58134
   C      -21.70516        17.17795         5.35376
   C      -21.66380        18.10751         6.42533
   C      -20.53603        17.77440         7.31905
   O      -20.23115        18.29884         8.36341
   C      -22.55355        19.14952         6.52614
   C      -23.51316        19.28848         5.51733
   C      -23.52899        18.36714         4.44105
   C      -22.63948        17.30488         4.34433
   S      -24.77945        18.73884         3.29754
   C      -25.26671        20.10177         4.26909
   C      -24.52837        20.27515         5.39168
  Br      -26.70300        21.16884         3.71313
   H        0.34002         3.47339        -2.49844
   H        2.09133         0.06897         0.73527
   H        2.92264         3.39849        -3.58416
   H       -2.98504         1.57058         2.41612
   H       -4.18402         0.25092        -0.39289
   H       -2.88183         0.77851        -1.48740
   H       -5.65829        -0.17807        -2.35445
   H       -4.14672        -1.08664        -2.51679
   H       -4.39433         0.39991        -3.44695
   H       -7.01560         5.45278         2.36175
   H       -7.47167         5.89261        -0.63547
   H       -8.58647         6.74355         2.87152
   H      -10.43197         9.43740        -0.86141
   H       -8.81381         7.63227        -1.30644
   H      -12.13564         7.43633         3.45876
   H      -12.00555         8.20123         5.03959
   H      -10.24510         5.92323         4.02713
   H      -11.54804         5.81778         5.20022
   H      -10.08893         6.70889         5.60838
   H       -9.94657         9.33010         5.65673
   H       -9.30994        10.41649         4.42714
   H       -8.18809         7.63975         5.00517
   H       -7.51711         9.18373         5.51083
   H       -7.58373         8.78182         3.79845
   H      -12.22160        10.67062         5.01044
   H      -13.47807        12.64446         1.41561
   H      -12.03636        11.18476         0.07701
   H      -13.66830        12.47143         5.19572
   H      -14.95126        13.54913         2.63063
   H      -18.14847        16.80485         7.87508
   H      -22.50952        19.83981         7.35396
   H      -22.67704        16.63549         3.50084
   H      -24.69122        21.06540         6.10161
*
