# ORCA input file
# SCF done       -192.476639688568          0.000738237681
! CAM-B3LYP def2-SVP def2/J RIJCOSX Grid4 TightSCF
%maxcore 5000
%tddft
    Mode sTDDFT
    Ethresh 5.0
    maxcore 5000
end

%pal
  nprocs 6
  end
* xyz 0 1
   C       -1.14990         1.49806         0.30653
   C       -0.98422         0.42895         1.14006
   C        0.20211         0.17349         1.86433
   N        1.13704        -0.08230         2.47799
   C       -1.96161        -0.54621         1.44413
   N       -2.68504        -1.37852         1.76043
   C       -0.16326         2.53912         0.05750
   C       -0.77221         3.57791        -0.68794
   C       -0.09525         4.71186        -1.06871
   C        1.25159         4.81999        -0.71060
   C        1.85539         3.77247         0.02823
   C        1.16932         2.63174         0.42177
   S        3.52649         4.10897         0.36404
   C        3.39413         5.62921        -0.47963
   C        2.16271         5.87490        -0.98799
  Br        4.89228         6.74837        -0.61002
   C       -2.18765         3.24329        -0.94367
   O       -3.02672         4.00133        -1.36412
   C       -2.34904         1.83234        -0.46780
   C       -3.35167         0.97343        -0.74149
   C       -4.47770         1.16592        -1.64224
   N       -5.47846         0.29449        -1.48293
   C       -6.50412         0.40875        -2.30719
   C       -6.55325         1.36843        -3.30504
   C       -5.45474         2.23494        -3.40211
   N       -4.42472         2.10693        -2.56671
   C       -5.38558         3.29664        -4.38528
   C       -4.50217         4.29722        -4.24340
   C       -4.31326         5.43183        -5.11929
   C       -3.59356         6.53551        -4.61526
   C       -3.34664         7.66596        -5.35722
   C       -3.82220         7.68494        -6.66483
   C       -4.53451         6.57523        -7.17639
   C       -4.79783         5.44995        -6.42892
   O       -4.85304         6.85639        -8.46460
   C       -4.33393         8.09718        -8.67993
   N       -3.72328         8.62097        -7.65497
   C       -4.47312         8.69515        -9.96133
   S       -5.20627         7.83065       -11.26169
   C       -4.96876         9.18138       -12.33952
   C       -4.33017        10.23419       -11.69453
   C       -4.05339         9.95717       -10.34692
   C       -3.36339        10.90554        -9.42371
   C       -3.28070        12.31276       -10.02057
   C       -4.60148        13.04805        -9.81647
   F       -5.68978        12.35433       -10.18010
   F       -4.78284        13.36508        -8.52301
   F       -4.65128        14.20544       -10.49752
   C       -2.87531        12.24928       -11.49569
   C       -3.90553        11.50775       -12.34644
   C       -5.36737         9.02475       -13.69040
   C       -5.58285        10.00203       -14.60800
   C       -5.94369         9.73897       -15.95547
   C       -5.64857         8.64771       -16.71531
   C       -4.70315         7.56323       -16.54860
   C       -3.49232         7.61942       -15.90593
   C       -2.57011         6.55414       -15.87394
   N       -1.79336         5.71160       -15.80650
   C       -2.99299         8.77218       -15.27124
   N       -2.51558         9.69241       -14.77701
   C       -5.13746         6.47506       -17.41856
   C       -6.16091         6.95652       -18.27370
   C       -6.45713         8.36289       -17.93255
   O       -7.22484         9.11566       -18.48533
   C       -6.75060         6.16924       -19.23245
   C       -6.32019         4.84256       -19.34288
   C       -5.30888         4.36762       -18.47329
   C       -4.70440         5.16619       -17.51028
   S       -4.94183         2.69626       -18.77212
   C       -6.13146         2.65867       -20.04658
   C       -6.77264         3.83591       -20.23915
  Br       -6.41635         1.06847       -20.99857
   H       -0.58773         5.48955        -1.63102
   H        1.67400         1.86200         0.98106
   H        1.90649         6.76332        -1.53563
   H       -3.35316        -0.00921        -0.28777
   H       -7.30750        -0.30192        -2.15929
   H       -7.39591         1.45123        -3.97229
   H       -6.10386         3.25757        -5.19176
   H       -3.88154         4.27091        -3.35687
   H       -3.23968         6.47803        -3.59671
   H       -2.80256         8.50688        -4.95992
   H       -5.33266         4.61525        -6.85040
   H       -2.35419        10.53403        -9.23049
   H       -3.87494        10.91319        -8.45861
   H       -2.54246        12.90100        -9.46515
   H       -1.91859        11.72863       -11.55316
   H       -2.73732        13.25693       -11.88986
   H       -3.47171        11.27918       -13.32321
   H       -4.78031        12.14460       -12.50725
   H       -5.55916         7.99961       -13.98727
   H       -5.58664        11.03700       -14.30541
   H       -6.58298        10.47063       -16.43980
   H       -7.52097         6.56275       -19.87673
   H       -3.94281         4.76058       -16.86489
   H       -7.53451         3.98976       -20.98128
*
