# ORCA input file
# SCF done       -191.080344362362          0.000526847052
! CAM-B3LYP def2-SVP def2/J RIJCOSX Grid4 TightSCF
%maxcore 5000
%tddft
    Mode sTDDFT
    Ethresh 5.0
    maxcore 5000
end

%pal
  nprocs 6
  end
* xyz 0 1
   C       -3.05062        -2.60518         5.95258
   O       -2.85215        -3.76916         5.68433
   C       -2.88090        -1.99042         7.28946
   C       -3.17036        -0.61732         7.22816
   C       -3.06914         0.15491         8.37756
   C       -2.68739        -0.45680         9.56146
   C       -2.40999        -1.81740         9.59836
   C       -2.49830        -2.60888         8.46178
  Br       -1.89680        -2.61223        11.24653
   C       -3.54789        -0.28120         5.85994
   C       -4.01903         0.93598         5.44344
   C       -4.14120         2.06372         6.28242
   N       -4.25752         3.01610         6.91253
   C       -4.48143         1.23302         4.14329
   N       -4.89584         1.55522         3.12195
   C       -3.42365        -1.48498         5.05212
   C       -3.44096        -1.50406         3.68856
   C       -3.43403        -2.62730         2.79971
   C       -3.99329        -3.87043         3.14155
   C       -3.95985        -4.89310         2.22958
   C       -3.38285        -4.71321         0.95849
   C       -2.85336        -3.47868         0.59803
   C       -2.89808        -2.44834         1.51037
   C       -3.50425        -5.94896         0.22055
   C       -4.15107        -6.89470         1.03645
   C       -4.48716        -6.29905         2.38212
   C       -3.76671        -7.03768         3.52627
   C       -2.25332        -7.06536         3.35276
   C       -6.00586        -6.30697         2.63727
   C       -6.79405        -5.58983         1.54762
   C       -4.40920        -8.15812         0.56720
   C       -4.04811        -8.50517        -0.74423
   C       -3.38991        -7.55627        -1.53943
   C       -3.11345        -6.28981        -1.06808
   C       -4.40644        -9.81863        -1.22360
   C       -4.38079       -10.23441        -2.50082
   N       -4.81410       -11.47868        -2.87655
   C       -4.98783       -11.91463        -4.14592
   S       -4.51452       -10.95502        -5.50798
   C       -5.17506       -12.16442        -6.56944
   N       -5.06899       -11.93393        -7.93675
   O       -5.52854       -12.76975        -8.69737
   O       -4.51400       -10.89762        -8.27752
   C       -5.72453       -13.22918        -5.90457
   C       -5.61774       -13.11748        -4.50646
   C       -6.08893       -14.08533        -3.55727
   C       -7.10816       -14.95064        -3.79184
   C       -7.55997       -15.90417        -2.85994
   C       -8.72274       -16.61973        -2.99373
   C       -9.24159       -17.58524        -2.09647
   C      -10.46685       -18.07062        -2.44228
   C      -10.99197       -17.51184        -3.62686
   S       -9.85025       -16.37895        -4.32000
   C      -12.24032       -17.71936        -4.18459
   C      -13.27360       -18.55530        -3.70467
   C      -14.43091       -18.47931        -4.41892
   C      -14.38674       -17.58264        -5.51282
   S      -12.77400       -16.86859        -5.61120
   C      -15.33491       -17.20209        -6.42793
   C      -16.70980       -17.51940        -6.49027
   C      -17.53254       -17.03713        -7.57408
   C      -18.83245       -17.44199        -7.37329
   C      -20.01143       -17.22387        -8.12444
   C      -21.17667       -17.74737        -7.64097
   C      -22.52043       -17.70796        -8.13521
   C      -23.33741       -18.39595        -7.26114
   C      -22.52426       -18.89045        -6.18812
   C      -21.21140       -18.50664        -6.40159
   C      -20.04073       -18.72865        -5.65455
   C      -18.86469       -18.20148        -6.13507
   C      -17.54092       -18.22918        -5.62416
   C      -24.76075       -18.57334        -7.41763
   C      -25.55645       -19.23044        -6.57792
   H       -3.27435         1.21264         8.37009
   H       -2.60388         0.12862        10.46419
   H       -2.28139        -3.66567         8.48295
   H       -3.42468        -0.54214         3.18820
   H       -4.46929        -4.00370         4.09791
   H       -2.42395        -3.32692        -0.38068
   H       -2.49287        -1.48182         1.24713
   H       -4.14836        -8.05994         3.57612
   H       -4.00627        -6.53964         4.46711
   H       -1.97807        -7.53652         2.41117
   H       -1.79701        -7.62493         4.16567
   H       -1.85120        -6.05538         3.36731
   H       -6.19924        -5.82936         3.59974
   H       -6.34324        -7.34333         2.70593
   H       -6.48895        -4.54835         1.47363
   H       -7.85745        -5.62063         1.77347
   H       -6.63379        -6.06304         0.58122
   H       -4.90889        -8.88619         1.19043
   H       -3.08581        -7.82141        -2.53980
   H       -2.60546        -5.57371        -1.69634
   H       -4.78251       -10.50255        -0.47156
   H       -4.04722        -9.61056        -3.31536
   H       -5.15225       -12.08843        -2.14177
   H       -6.16225       -14.06426        -6.41967
   H       -5.60606       -14.10541        -2.58765
   H       -7.64742       -14.89103        -4.72778
   H       -6.97438       -16.06859        -1.96467
   H       -8.69369       -17.88447        -1.22023
   H      -11.00901       -18.80310        -1.87133
   H      -13.13830       -19.18512        -2.84342
   H      -15.30464       -19.06035        -4.19300
   H      -14.98890       -16.53242        -7.20636
   H      -17.16391       -16.45303        -8.39865
   H      -19.97530       -16.65646        -9.04394
   H      -22.82899       -17.21716        -9.04020
   H      -22.88165       -19.46557        -5.35371
   H      -20.07571       -19.29288        -4.73312
   H      -17.26664       -18.70245        -4.70184
   H      -25.18058       -18.11826        -8.30647
   H      -25.18614       -19.69982        -5.68270
   H      -26.61298       -19.32363        -6.76039
*
