# ORCA input file
# SCF done       -198.194644773353          0.000859023112
! CAM-B3LYP def2-SVP def2/J RIJCOSX Grid4 TightSCF
%maxcore 5000
%tddft
    Mode sTDDFT
    Ethresh 5.0
    maxcore 5000
end

%pal
  nprocs 6
  end
* xyz 0 1
   C        3.26903         0.94239        -6.27092
   S        1.80972         1.84780        -6.49531
   C        2.41081         3.03958        -5.37427
   C        3.67372         2.63444        -4.93285
   N        4.10481         1.45988        -5.45236
   C        4.60992         3.31431        -4.01233
   O        4.67926         4.50911        -3.82330
   O        5.40523         2.43268        -3.41584
   C        6.38002         2.96630        -2.53262
   C        1.54037         4.12176        -5.05522
   C        1.80796         5.08123        -4.13553
   C        0.99066         6.16167        -3.70612
   C       -0.02662         6.91426        -4.30706
   N       -0.61863         6.80086        -5.56991
   O       -0.44906         5.78890        -6.23480
   O       -1.28678         7.75029        -5.95551
   C       -0.35675         8.02032        -3.45260
   C        0.45640         7.99733        -2.36480
   C        1.32221         6.86161        -2.46561
   C        2.25371         6.44464        -1.51285
   C        2.54969         5.11481        -1.13980
   C        3.33813         5.12921        -0.01019
   C        3.62460         6.46912         0.33928
   N        4.45263         6.82707         1.40676
   O        4.62328         8.01537         1.64899
   O        4.95992         5.92420         2.05508
   C        3.00708         7.32500        -0.60001
   C        3.22008         8.69019        -0.76736
   C        2.93440         9.35726        -1.94442
   C        2.88555        10.73733        -2.12420
   C        2.92357        11.72117        -1.12195
   C        2.55904        12.95786        -1.65081
   O        2.53591        14.01851        -0.84444
   C        1.95156        15.25426        -1.20328
   C        2.30738        12.80124        -3.05839
   C        2.45439        11.39030        -3.35373
   C        2.07447        10.74491        -4.51506
   C        2.53810         9.50946        -5.04104
   C        1.77110         9.20193        -6.13998
   O        1.82834         8.18724        -6.98021
   C        2.83353         7.21002        -6.79711
   C        0.73984        10.23491        -6.30373
   C        0.95147        11.17686        -5.37575
   C        2.20052        13.83146        -3.99660
   C        2.40144        13.73783        -5.35796
   C        2.26444        14.84094        -6.21255
   C        1.88390        16.14277        -5.88504
   C        1.91029        16.94757        -7.03606
   C        2.31319        16.06261        -8.14756
   C        2.52519        14.81868        -7.64255
   C        2.46642        16.43053        -9.48833
   N        2.60067        16.70933       -10.59484
   C        1.64347        18.30774        -7.10742
   C        1.64839        19.14084        -8.24662
   C        1.34916        20.44066        -7.86534
   C        1.14562        20.44096        -6.42731
   C        1.31535        19.17556        -5.95848
   C        1.21995        18.79123        -4.61911
   N        1.14486        18.49149        -3.51080
   C        1.25471        21.61032        -8.65563
   C        1.42805        21.66228       -10.00322
   C        1.33494        22.88120       -10.71787
   S        1.54419        22.92443       -12.47698
   C        1.29515        24.63488       -12.43431
   C        1.07786        25.03120       -11.11269
   N        1.10522        24.04800       -10.20212
   C        0.83484        26.41919       -10.67000
   O        0.77608        27.38284       -11.39768
   O        0.68826        26.48294        -9.34689
   C        0.45341        27.77579        -8.81146
   C        1.32038        25.46405       -13.60211
   C        1.52693        25.01033       -14.83776
   H        3.43694         0.02029        -6.79047
   H        6.89645         2.11310        -2.10177
   H        5.90162         3.56196        -1.75148
   H        7.07979         3.60270        -3.07804
   H        0.59983         4.12579        -5.58575
   H        2.75653         5.03385        -3.62236
   H       -1.13348         8.72574        -3.67678
   H        0.41665         8.65776        -1.52034
   H        2.11756         4.23936        -1.58586
   H        3.68664         4.27785         0.54474
   H        3.68944         9.21648         0.05342
   H        2.69386         8.75403        -2.80475
   H        3.16181        11.55892        -0.08847
   H        1.83607        15.79894        -0.26663
   H        0.96999        15.12178        -1.66311
   H        2.60556        15.83234        -1.86194
   H        3.41727         8.98865        -4.71627
   H        2.59913         6.40490        -7.49034
   H        2.83652         6.82312        -5.77522
   H        3.81827         7.62513        -7.02787
   H       -0.03818        10.17194        -7.03819
   H        0.34814        12.04087        -5.17721
   H        2.01492        14.82462        -3.62131
   H        2.71790        12.80175        -5.79566
   H        1.61464        16.49768        -4.91154
   H        2.83250        13.94832        -8.19277
   H        1.85389        18.80426        -9.24317
   H        0.90304        21.31144        -5.84607
   H        1.03121        22.53767        -8.14508
   H        1.64550        20.77344       -10.57654
   H        0.35476        27.64502        -7.73715
   H       -0.45950        28.20254        -9.23269
   H        1.28834        28.44100        -9.04271
   H        1.15343        26.51464       -13.40919
   H        1.69050        23.96302       -15.03754
   H        1.53483        25.67388       -15.68387
*
