# ORCA input file
# SCF done       -236.686116106287          0.000671144607
! CAM-B3LYP def2-SVP def2/J RIJCOSX Grid4 TightSCF
%maxcore 5000
%tddft
    Mode sTDDFT
    Ethresh 5.0
    maxcore 5000
end

%pal
  nprocs 6
  end
* xyz 0 1
   C      -11.19744         3.68548        -4.80504
   C      -12.17692         4.42419        -5.40644
   F      -11.94428         5.69734        -5.75170
   C      -13.44160         3.85971        -5.67061
   F      -14.38221         4.60850        -6.26152
   C      -13.70952         2.56432        -5.32738
   C      -12.72190         1.77725        -4.70336
   C      -11.44167         2.34613        -4.43825
   C      -10.43440         1.57529        -3.81641
   C      -10.69997         0.27584        -3.46931
   C      -11.98269        -0.28328        -3.73547
   C      -12.97510         0.43797        -4.33311
   C      -12.01443        -1.67781        -3.25922
   O      -12.98025        -2.38326        -3.09028
   C      -10.60045        -1.98639        -2.87952
   C       -9.85995        -0.73798        -2.84159
   C       -8.61909        -0.54058        -2.29932
   C       -7.87703        -1.54165        -1.63718
   N       -7.24535        -2.31790        -1.07464
   C       -7.94863         0.70117        -2.28850
   N       -7.35806         1.68410        -2.24730
   C      -10.13556        -3.24213        -2.69246
   C      -10.87817        -4.43498        -2.96671
   C      -11.61154        -4.77255        -4.09434
   N      -11.83476        -4.02234        -5.26149
   O      -11.35835        -2.89831        -5.35137
   O      -12.47411        -4.55384        -6.15090
   C      -12.05051        -6.13873        -3.97848
   C      -11.56131        -6.65704        -2.82302
   C      -10.80969        -5.64115        -2.14157
   C      -10.21640        -5.69832        -0.89069
   C      -10.00168        -4.59740        -0.02647
   C       -9.57984        -5.06776         1.18784
   C       -9.45461        -6.48495         1.14018
   N       -9.03068        -7.17425         2.28372
   O       -9.07002        -8.40050         2.31595
   O       -8.65251        -6.50336         3.22906
   C       -9.79449        -6.92293        -0.16314
   C       -9.61925        -8.11907        -0.85041
   C       -9.23738        -9.34725        -0.33669
   C       -9.10038       -10.49783        -1.08885
   S       -9.43675       -10.58382        -2.79833
   C       -9.13427       -12.29375        -2.86995
   C       -8.67786       -12.77729        -1.61300
   C       -8.69072       -11.77551        -0.60651
   C       -8.30531       -12.07581         0.70194
   C       -7.87230       -13.34785         1.01727
   C       -7.45426       -13.70095         2.40574
   C       -7.79557       -14.31629         0.00095
   C       -8.18105       -14.04898        -1.28846
   C       -9.40852       -12.95142        -4.07498
   C       -9.59017       -14.30210        -4.23287
   C       -9.86872       -14.94909        -5.44809
   C      -10.11889       -16.31086        -5.57371
   C      -10.35326       -16.62561        -6.93121
   C      -10.23223       -15.35262        -7.66911
   C       -9.94590       -14.36653        -6.77978
   C      -10.39252       -15.16974        -9.04801
   N      -10.52448       -14.99047       -10.17461
   C      -10.64547       -17.86591        -7.46812
   C      -10.88503       -18.19677        -8.82598
   C      -11.16538       -19.54780        -8.92619
   C      -11.09785       -20.11489        -7.58651
   C      -10.78394       -19.12552        -6.71109
   C      -10.62691       -19.29767        -5.33138
   N      -10.50826       -19.46471        -4.20082
   C      -11.43505       -20.25019       -10.12317
   C      -11.82470       -21.55409       -10.18635
   C      -12.12678       -22.26080       -11.37435
   C      -11.71253       -22.06314       -12.65906
   C      -12.50519       -22.69475       -13.75626
   O      -13.36629       -23.53266       -13.62751
   C      -12.04620       -22.04156       -14.99572
   C      -12.53543       -22.16843       -16.26398
   C      -11.94622       -21.41659       -17.30465
   C      -10.86268       -20.53959       -17.00644
   C      -10.28300       -19.78801       -18.04826
   C      -10.75476       -19.90373       -19.32579
   C      -11.82649       -20.77154       -19.61941
   C      -12.41065       -21.51289       -18.63090
   F      -12.26912       -20.86290       -20.87960
   F      -10.20178       -19.19126       -20.31448
   C      -10.37553       -20.43207       -15.68353
   C      -10.95367       -21.17997       -14.69275
   C      -10.64771       -21.29521       -13.26708
   C       -9.45240       -20.94250       -12.69537
   C       -9.08765       -21.24417       -11.36881
   N       -8.73520       -21.47760       -10.30170
   C       -8.40722       -20.30232       -13.39442
   N       -7.52774       -19.77901       -13.91329
   H      -10.23523         4.13292        -4.61030
   H      -14.68184         2.14671        -5.53681
   H       -9.47320         2.02971        -3.63625
   H      -13.93717        -0.01023        -4.52824
   H       -9.12424        -3.39775        -2.33673
   H      -12.66755        -6.62365        -4.71038
   H      -11.79519        -7.62416        -2.42219
   H      -10.24562        -3.57807        -0.25214
   H       -9.37607        -4.48802         2.06885
   H       -9.78689        -8.07253        -1.91935
   H       -9.05659        -9.42943         0.72522
   H       -8.33713       -11.31098         1.46207
   H       -8.03330       -14.54880         2.76903
   H       -7.59460       -12.86284         3.08212
   H       -6.40416       -13.99082         2.41975
   H       -7.41305       -15.29578         0.24658
   H       -8.06438       -14.80467        -2.04693
   H       -9.55886       -12.30843        -4.93277
   H       -9.57618       -14.94299        -3.36353
   H      -10.13191       -17.01530        -4.76555
   H       -9.79833       -13.32993        -7.01818
   H      -10.85544       -17.50192        -9.64254
   H      -11.24973       -21.14789        -7.33827
   H      -11.36265       -19.67237       -11.03662
   H      -12.01310       -22.08690        -9.26468
   H      -12.85139       -23.06513       -11.27187
   H      -13.36059       -22.83295       -16.47009
   H       -9.46013       -19.12161       -17.84177
   H      -13.22973       -22.17232       -18.87163
   H       -9.56226       -19.75218       -15.48608
*
