# ORCA input file
# SCF done       -213.733228783234          0.000389311303
! CAM-B3LYP def2-SVP def2/J RIJCOSX Grid4 TightSCF
%maxcore 5000
%tddft
    Mode sTDDFT
    Ethresh 5.0
    maxcore 5000
end

%pal
  nprocs 6
  end
* xyz 0 1
   C       -6.04008         1.12297         9.55537
   C       -7.01114         1.10130        10.51693
   F       -7.43204         2.24303        11.07407
   C       -7.58142        -0.11879        10.93440
   F       -8.53130        -0.10910        11.87769
   C       -7.17189        -1.30089        10.38404
   C       -6.17328        -1.31123         9.39086
   C       -5.59515        -0.07869         8.96810
   C       -4.58985        -0.06513         7.97436
   C       -4.17254        -1.24821         7.42251
   C       -4.75932        -2.47293         7.84789
   C       -5.73435        -2.51765         8.80273
   C       -4.16333        -3.59284         7.09782
   O       -4.48626        -4.75915         7.15929
   C       -3.16591        -2.97491         6.18309
   C       -3.16590        -1.54122         6.40676
   C       -2.32082        -0.63042         5.83034
   C       -1.29515        -0.95172         4.91528
   N       -0.43074        -1.14693         4.18595
   C       -2.34785         0.75388         6.10324
   N       -2.32696         1.88701         6.28334
   C       -2.52547        -3.65966         5.19261
   C       -2.44581        -5.07408         5.09309
   C       -2.39113        -5.79377         3.91514
   C       -2.38947        -7.18328         4.22068
   C       -2.36504        -7.27905         5.68737
   C       -2.39571        -6.01825         6.19882
   C       -2.28782        -8.45960         6.43090
   N       -2.22375        -9.44470         7.02135
   C       -2.42888        -8.25172         3.34429
   C       -2.50559        -9.61660         3.69201
   C       -2.53638       -10.38662         2.53996
   C       -2.47444        -9.48013         1.40291
   C       -2.41357        -8.20613         1.86796
   C       -2.34830        -7.05461         1.07404
   N       -2.30017        -6.12484         0.40217
   C       -2.62862       -11.78366         2.46685
   S       -2.71792       -12.63400         0.94295
   C       -2.86514       -14.21215         1.68235
   C       -2.82362       -14.07646         3.08369
   C       -2.68823       -12.72267         3.50339
   N       -2.64248       -12.69613         4.85707
   C       -2.73865       -13.98845         5.31539
   C       -2.71470       -14.30333         6.68361
   N       -2.69534       -14.58230         7.79512
   C       -2.85236       -14.86540         4.25269
   C       -3.00112       -15.33564         0.86156
   C       -3.24255       -16.60654         1.31462
   C       -3.37746       -17.74475         0.50139
   C       -3.69164       -19.01762         0.95618
   C       -3.72789       -19.91288        -0.13775
   C       -3.40818       -19.10764        -1.33648
   C       -3.21417       -17.82314        -0.94613
   C       -3.35318       -19.57102        -2.65635
   N       -3.29882       -19.93673        -3.74425
   C       -4.03897       -21.25629        -0.12973
   C       -4.03755       -22.13537        -1.24725
   C       -4.54062       -23.36087        -0.86393
   C       -4.83149       -23.29299         0.56059
   C       -4.53738       -22.04392         1.00903
   C       -4.70128       -21.58684         2.32124
   N       -4.82705       -21.22781         3.40511
   C       -4.71309       -24.52324        -1.65379
   C       -4.74917       -24.63946        -3.01000
   C       -4.51368       -25.98653        -3.61292
   O       -4.53677       -27.04611        -3.03302
   C       -4.19222       -25.72632        -5.02851
   C       -3.75731       -26.59812        -5.98532
   C       -3.46197       -26.10694        -7.27646
   C       -3.61313       -24.71547        -7.54788
   C       -3.30116       -24.23056        -8.83395
   C       -2.86425       -25.08662        -9.80550
   C       -2.71806       -26.46286        -9.53686
   C       -3.01032       -26.96373        -8.29939
   F       -2.28673       -27.27813       -10.50813
   F       -2.56879       -24.62481       -11.02701
   C       -4.07325       -23.83808        -6.53938
   C       -4.37029       -24.34007        -5.30087
   C       -4.87432       -23.68591        -4.09460
   C       -5.55569       -22.49810        -4.08549
   C       -6.20547       -21.95890        -2.95840
   N       -6.76522       -21.48108        -2.07725
   C       -5.76797       -21.70920        -5.23764
   N       -5.98710       -21.04486        -6.14646
   H       -5.61400         2.06545         9.24868
   H       -7.61788        -2.22620        10.71363
   H       -4.17759         0.88389         7.67198
   H       -6.16214        -3.46128         9.10566
   H       -2.07228        -3.10699         4.37843
   H       -2.41797        -5.38123         2.92487
   H       -2.32731        -5.75735         7.23670
   H       -2.55178        -9.97578         4.69708
   H       -2.47838        -9.79188         0.37470
   H       -2.53656       -11.89162         5.45601
   H       -2.93493       -15.92911         4.34237
   H       -2.92992       -15.15647        -0.20248
   H       -3.36344       -16.76945         2.37511
   H       -3.87587       -19.28849         1.97736
   H       -2.97789       -16.99937        -1.59328
   H       -3.64744       -21.88636        -2.21354
   H       -5.23759       -24.10223         1.13875
   H       -4.75671       -25.46655        -1.11619
   H       -3.63602       -27.64657        -5.75935
   H       -3.41095       -23.18080        -9.05686
   H       -2.89238       -28.01908        -8.10949
   H       -4.16486       -22.78772        -6.76502
*
