# ORCA input file
# SCF done       -245.011877091844          0.000878357302
! CAM-B3LYP def2-SVP def2/J RIJCOSX Grid4 TightSCF
%maxcore 5000
%tddft
    Mode sTDDFT
    Ethresh 5.0
    maxcore 5000
end

%pal
  nprocs 6
  end
* xyz 0 1
   C       -8.39763       -16.41217         7.99293
   C       -7.27478       -17.10188         7.63052
   F       -6.82715       -18.10680         8.39119
   C       -6.57449       -16.76564         6.45337
   F       -5.47838       -17.45860         6.12293
   C       -7.00701       -15.74371         5.65565
   C       -8.16057       -15.01343         6.00246
   C       -8.87053       -15.35356         7.19131
   C      -10.03164       -14.63653         7.55736
   C      -10.46923       -13.61119         6.75996
   C       -9.74867       -13.27086         5.57838
   C       -8.62429       -13.94836         5.19982
   C      -10.39158       -12.12005         4.92239
   O      -10.03913       -11.54908         3.91330
   C      -11.53283       -11.75323         5.80359
   C      -11.61928       -12.72445         6.88195
   C      -12.63694       -12.82783         7.78723
   C      -13.79203       -12.01554         7.75798
   N      -14.76656       -11.41046         7.74281
   C      -12.68384       -13.79063         8.81855
   N      -12.76351       -14.55213         9.67264
   C      -12.20567       -10.58844         5.66687
   C      -12.02204        -9.70643         4.54845
   C      -11.51482        -8.42928         4.62103
   N      -11.10780        -7.80935         5.81573
   O      -10.74230        -6.65223         5.76450
   O      -11.15211        -8.48326         6.83517
   C      -11.38232        -7.87924         3.29487
   C      -11.75755        -8.83186         2.40831
   C      -12.18757       -10.00901         3.12684
   C      -12.77444       -11.14791         2.62666
   C      -13.70848       -11.98255         3.31321
   C      -14.28342       -12.80956         2.40443
   C      -13.68314       -12.60364         1.10693
   N      -14.06923       -13.43122         0.04423
   O      -14.83186       -14.34855         0.30459
   O      -13.63975       -13.23401        -1.08445
   C      -12.70663       -11.61221         1.21825
   C      -11.68203       -11.12008         0.37692
   C      -11.67172       -11.18000        -0.98391
   C      -10.75482       -10.52501        -1.85482
   C       -9.82508        -9.57070        -1.50290
   S       -9.20210        -8.65874        -2.81152
   C      -10.24532        -9.50907        -3.92989
   C      -10.94192       -10.55483        -3.28697
   C      -11.68972       -11.44144        -4.07142
   C      -11.93618       -12.85001        -3.62269
   C      -11.49364       -13.85340        -4.68987
   C      -12.00223       -10.96617        -5.35558
   C      -11.24732        -9.88150        -5.86948
   N      -10.32035        -9.21502        -5.20854
   S      -11.64757        -9.54222        -7.52548
   C      -12.89834       -10.73367        -7.47739
   C      -12.99153       -11.40897        -6.30016
   C      -14.09515       -12.29169        -5.91569
   C      -14.68432       -12.05952        -4.66631
   C      -15.69869       -12.88642        -4.24803
   C      -16.16140       -13.92676        -5.06020
   C      -17.22275       -14.64725        -4.30752
   O      -17.90436       -15.57711        -4.64914
   N      -17.30812       -14.00023        -3.08131
   C      -16.44295       -12.92833        -2.96281
   O      -16.35056       -12.19876        -2.00798
   C      -18.20006       -14.43093        -2.02379
   C      -17.59067       -15.57005        -1.21526
   C      -15.63909       -14.13441        -6.31467
   C      -14.59375       -13.30479        -6.75885
   C      -14.00363       -13.51309        -8.06359
   C      -14.68819       -13.94642        -9.14294
   C      -14.07601       -14.10725       -10.41449
   C      -14.63381       -14.60286       -11.54998
   C      -13.99060       -14.31925       -12.86507
   O      -12.86703       -13.91330       -13.04583
   C      -15.04149       -14.57251       -13.87033
   C      -15.01433       -14.33865       -15.21521
   C      -16.16553       -14.61857       -15.98445
   C      -17.32835       -15.13393       -15.34078
   C      -18.47776       -15.39962       -16.11212
   C      -18.47244       -15.16645       -17.45862
   C      -17.32122       -14.65831       -18.09445
   C      -16.19107       -14.39045       -17.37422
   F      -17.34558       -14.43793       -19.41495
   F      -19.56515       -15.41795       -18.18963
   C      -17.32416       -15.37473       -13.94801
   C      -16.19424       -15.10357       -13.22319
   C      -15.89533       -15.27100       -11.80268
   C      -16.57588       -16.08945       -10.94201
   C      -16.11891       -16.43484        -9.65245
   N      -15.77034       -16.77053        -8.61177
   C      -17.76608       -16.76605       -11.28602
   N      -18.74294       -17.32178       -11.51639
   H       -8.92184       -16.68287         8.89611
   H       -6.45927       -15.49839         4.75928
   H      -10.54453       -14.91082         8.46520
   H       -8.09495       -13.67327         4.30019
   H      -12.86097       -10.23615         6.45515
   H      -11.03619        -6.88322         3.09578
   H      -11.84685        -8.70704         1.34656
   H      -13.98982       -11.87191         4.34264
   H      -15.07060       -13.52006         2.57474
   H      -10.86762       -10.63509         0.89647
   H      -12.49848       -11.67366        -1.46898
   H       -9.50998        -9.31701        -0.50885
   H      -12.97982       -13.03284        -3.36723
   H      -11.34737       -13.03301        -2.72373
   H      -12.12052       -13.80629        -5.57476
   H      -11.55959       -14.85878        -4.28268
   H      -10.46224       -13.66716        -4.98439
   H      -13.55131       -10.82508        -8.32411
   H      -14.35751       -11.23797        -4.04753
   H      -19.13308       -14.75403        -2.49294
   H      -18.38524       -13.56314        -1.38662
   H      -17.38859       -16.42049        -1.86199
   H      -18.28618       -15.87892        -0.44015
   H      -16.66358       -15.25244        -0.74394
   H      -15.98184       -14.95584        -6.92561
   H      -12.94887       -13.28942        -8.16594
   H      -15.75088       -14.12074        -9.06146
   H      -13.06944       -13.71705       -10.52787
   H      -14.12743       -13.94182       -15.68525
   H      -19.36605       -15.79178       -15.64205
   H      -15.31860       -14.00169       -17.87556
   H      -18.22056       -15.75681       -13.48622
*
