# ORCA input file
# SCF done       -251.101788177587          0.000617453719
! CAM-B3LYP def2-SVP def2/J RIJCOSX Grid4 TightSCF
%maxcore 5000
%tddft
    Mode sTDDFT
    Ethresh 5.0
    maxcore 5000
end

%pal
  nprocs 6
  end
* xyz 0 1
   C      -12.15022        -2.20100         4.47422
   C      -13.13296        -2.81104         5.20270
   F      -13.95803        -2.08318         5.96160
   C      -13.29022        -4.21234         5.16441
   F      -14.25949        -4.78192         5.88853
   C      -12.46290        -4.98337         4.39673
   C      -11.44128        -4.38416         3.63410
   C      -11.28058        -2.96773         3.67266
   C      -10.26225        -2.34529         2.91617
   C       -9.43163        -3.11409         2.14303
   C       -9.59662        -4.52987         2.11288
   C      -10.57177        -5.15813         2.83526
   C       -8.57408        -5.12580         1.24087
   O       -8.38743        -6.29917         1.00088
   C       -7.75428        -3.98295         0.75530
   C       -8.32666        -2.74845         1.26580
   C       -7.94452        -1.48445         0.91611
   C       -8.53042        -0.30810         1.43223
   N       -8.97171         0.67467         1.82537
   C       -6.95000        -1.21241        -0.04923
   N       -6.18390        -0.95345        -0.86288
   C       -6.58845        -4.17777         0.09802
   C       -6.17608        -5.47048        -0.36893
   C       -5.07379        -6.16492         0.06168
   N       -4.16641        -5.67542         1.02441
   O       -3.17132        -6.32706         1.25649
   O       -4.44830        -4.61106         1.55487
   C       -5.04796        -7.47532        -0.54629
   C       -6.15921        -7.60248        -1.31130
   C       -6.92177        -6.37971        -1.25775
   C       -8.06719        -6.03413        -1.93554
   C       -8.46404        -4.70802        -2.29527
   C       -9.57066        -4.78764        -3.08127
   C       -9.96875        -6.16197        -3.20805
   N      -11.14120        -6.48664        -3.92104
   O      -11.88078        -5.56331        -4.20737
   O      -11.35638        -7.64796        -4.22381
   C       -9.07950        -6.96618        -2.49076
   C       -9.08187        -8.31033        -2.07437
   C       -9.82821        -9.36976        -2.52087
   C       -9.61733       -10.67849        -2.03358
   C       -8.58927       -11.13711        -1.22815
   C       -8.71155       -12.54384        -1.06193
   C       -9.94336       -12.93565        -1.78237
   C      -10.45490       -11.82757        -2.37218
   C      -10.51069       -14.21677        -1.82288
   N      -11.01952       -15.24506        -1.84253
   C       -7.81716       -13.37567        -0.43397
   C       -7.87460       -14.80229        -0.32651
   C       -6.75983       -15.24404         0.33301
   C       -5.94181       -14.08688         0.67758
   C       -6.55223       -12.96693         0.20551
   C       -6.02092       -11.67490         0.27572
   N       -5.55877       -10.62404         0.32944
   C       -6.33486       -16.59818         0.56373
   C       -6.14324       -17.57031        -0.38575
   N       -6.30872       -17.47091        -1.79050
   O       -5.89984       -18.40515        -2.45084
   O       -6.81006       -16.46529        -2.25358
   C       -5.54423       -18.74382         0.22464
   C       -5.43460       -18.52561         1.55027
   C       -5.98757       -17.22365         1.85801
   C       -6.28709       -16.73212         3.10184
   C       -6.55095       -15.36088         3.46178
   C       -6.40190       -15.22259         4.80073
   C       -6.13727       -16.51809         5.37293
   N       -6.01721       -16.72465         6.76558
   O       -6.05351       -15.73901         7.47560
   O       -5.87817       -17.86518         7.17086
   C       -6.13966       -17.47575         4.37401
   C       -6.15538       -18.88407         4.55349
   C       -6.90869       -19.73339         3.79808
   C       -6.88867       -21.12474         4.03896
   C       -7.63968       -22.14843         3.53987
   C       -7.40079       -23.48869         4.17307
   O       -6.47983       -23.76896         4.90203
   C       -8.51844       -24.34013         3.74744
   C       -8.81853       -25.61362         4.13910
   C       -9.98970       -26.22517         3.64197
   C      -10.83287       -25.49266         2.75637
   C      -12.01125       -26.09801         2.27484
   C      -12.33477       -27.37099         2.65282
   C      -11.49794       -28.09549         3.52723
   C      -10.34907       -27.53572         4.01213
   F      -11.84125       -29.33910         3.88016
   F      -13.45327       -27.94436         2.19627
   C      -10.49075       -24.17787         2.36628
   C       -9.33806       -23.60902         2.84269
   C       -8.73743       -22.29222         2.60275
   C       -9.12703       -21.47135         1.57550
   C       -8.57676       -20.23736         1.18885
   N       -8.21204       -19.22295         0.78986
   C      -10.16540       -21.78980         0.66667
   N      -10.98665       -21.97515        -0.11225
   H      -12.04440        -1.12824         4.51487
   H      -12.59606        -6.05363         4.37889
   H      -10.15923        -1.27348         2.97075
   H      -10.67646        -6.23176         2.79815
   H       -5.88370        -3.36513        -0.03409
   H       -4.27878        -8.20372        -0.37598
   H       -6.37883        -8.43063        -1.95642
   H       -7.90389        -3.81950        -2.07518
   H      -10.09545        -3.97978        -3.55622
   H       -8.38854        -8.51011        -1.26971
   H      -10.57922        -9.23535        -3.28583
   H       -7.78986       -10.55444        -0.81688
   H      -11.33801       -11.77237        -2.98130
   H       -8.67125       -15.41337        -0.70063
   H       -4.98304       -14.13890         1.16117
   H       -5.23488       -19.60260        -0.33923
   H       -4.99686       -19.18550         2.27145
   H       -6.75200       -14.57162         2.76581
   H       -6.47764       -14.32434         5.38382
   H       -5.62976       -19.26971         5.41918
   H       -7.55069       -19.32760         3.03340
   H       -6.16663       -21.45651         4.78254
   H       -8.17317       -26.14183         4.82418
   H      -12.66092       -25.55991         1.60232
   H       -9.71988       -28.10218         4.68063
   H      -11.16261       -23.65310         1.70756
*
