# ORCA input file
# SCF done       -223.457073988650          0.000725279105
! CAM-B3LYP def2-SVP def2/J RIJCOSX Grid4 TightSCF
%maxcore 5000
%tddft
    Mode sTDDFT
    Ethresh 5.0
    maxcore 5000
end

%pal
  nprocs 6
  end
* xyz 0 1
   C       10.63768        -4.66191        -4.35249
   S        9.61923        -5.71120        -5.22161
   C        8.41961        -5.70269        -3.96159
   C        8.81880        -4.87029        -2.92499
   C       10.09525        -4.29017        -3.15423
   C       10.83817        -3.37584        -2.22465
   F       12.10703        -3.20706        -2.63556
   F       10.30735        -2.14710        -2.15869
   F       10.91290        -3.85056        -0.97518
   C        7.95235        -4.55069        -1.74866
   F        6.68495        -4.29167        -2.12832
   F        7.87297        -5.56569        -0.86305
   F        8.34750        -3.48389        -1.05891
   C        7.28513        -6.54076        -4.19541
   C        6.41187        -7.03571        -3.28592
   C        5.35658        -7.96159        -3.53877
   C        5.14551        -8.90184        -4.55342
   N        5.80493        -9.14304        -5.77093
   O        5.69942       -10.26749        -6.23428
   O        6.42909        -8.24849        -6.32102
   C        4.07739        -9.77956        -4.16728
   C        3.63627        -9.42626        -2.93190
   C        4.38204        -8.28628        -2.49148
   C        4.12762        -7.55765        -1.33759
   C        4.25802        -6.16197        -1.16445
   C        3.66290        -5.81492         0.01993
   C        3.18424        -6.98138         0.68570
   N        2.53929        -6.86270         1.92245
   O        2.53828        -5.76147         2.44745
   O        1.98720        -7.83831         2.41860
   C        3.49828        -8.10641        -0.10289
   C        3.53039        -9.48394         0.11341
   C        3.00830       -10.19819         1.17488
   C        2.99342       -11.58159         1.33245
   S        2.36686       -12.14946         2.86093
   C        2.56357       -13.80397         2.44466
   C        3.08858       -13.93666         1.13836
   C        3.34833       -12.68773         0.50486
   C        3.87450       -12.69048        -0.79326
   C        4.15130       -13.87414        -1.44357
   C        4.71469       -13.87996        -2.82551
   C        3.89823       -15.09790        -0.79663
   C        3.37760       -15.13660         0.46764
   C        2.33246       -14.86516         3.34687
   C        2.01446       -14.74647         4.66012
   C        1.99793       -15.85127         5.58648
   C        1.09590       -15.81799         6.66401
   C        1.02608       -16.90277         7.50184
   C        1.84877       -18.02140         7.31151
   C        1.53116       -19.01106         8.37031
   O        1.99881       -20.10450         8.55905
   N        0.53372       -18.42317         9.13375
   C        0.17060       -17.16082         8.68852
   O       -0.67567       -16.46502         9.18634
   C       -0.04209       -19.04771        10.30652
   C        0.75376       -18.70326        11.56015
   C        2.77448       -18.05860         6.29619
   C        2.86907       -16.96198         5.43021
   C        3.90531       -16.91030         4.41938
   C        4.36028       -17.95491         3.70590
   C        5.23948       -17.85331         2.57579
   S        5.15597       -19.13323         1.40579
   C        6.18644       -18.30370         0.29089
   C        6.55835       -17.07940         0.80226
   C        6.06567       -16.84286         2.11630
   C        6.52825       -15.69158         2.95630
   F        5.70814       -14.62041         2.89947
   F        6.61619       -16.02288         4.25603
   F        7.74606       -15.26572         2.61627
   C        7.25602       -16.03118        -0.01310
   F        6.95752       -16.13875        -1.32208
   F        6.87432       -14.79099         0.32271
   F        8.59204       -16.07375         0.06971
   C        6.54689       -18.97403        -0.93918
   C        7.72051       -18.86401        -1.55202
   H       11.58852        -4.36289        -4.74680
   H        7.18343        -6.84319        -5.22890
   H        6.49907        -6.75790        -2.24679
   H        3.70336       -10.56343        -4.79852
   H        2.77797        -9.83007        -2.42943
   H        4.62958        -5.47760        -1.90030
   H        3.54206        -4.82260         0.41319
   H        4.05850       -10.03160        -0.64936
   H        2.54120        -9.63654         1.97426
   H        4.07279       -11.77034        -1.31413
   H        4.04652       -14.41126        -3.50208
   H        5.67022       -14.40181        -2.83662
   H        4.86231       -12.87069        -3.19951
   H        4.12196       -16.01616        -1.31996
   H        3.18039       -16.08422         0.94592
   H        2.45306       -15.85658         2.93319
   H        1.75209       -13.77381         5.05602
   H        0.45146       -14.96473         6.80996
   H       -0.03826       -20.12713        10.13749
   H       -1.06959       -18.68746        10.39609
   H        1.77861       -19.05417        11.46328
   H        0.30122       -19.18017        12.42462
   H        0.76038       -17.62720        11.71771
   H        3.44173       -18.89958         6.19117
   H        4.28072       -15.91899         4.22122
   H        3.93918       -18.93932         3.85992
   H        5.79905       -19.66126        -1.31197
   H        8.51401       -18.23837        -1.18223
   H        7.92613       -19.41621        -2.45150
*
