# ORCA input file
# SCF done       -168.117827168286          0.000931068576
! CAM-B3LYP def2-SVP def2/J RIJCOSX Grid4 TightSCF
%maxcore 5000
%tddft
    Mode sTDDFT
    Ethresh 5.0
    maxcore 5000
end

%pal
  nprocs 6
  end
* xyz 0 1
   C      -14.31953         6.76219         2.67507
   C      -15.60269         6.51451         2.25576
   C      -16.75446         7.03771         2.87840
   N      -17.72838         7.44183         3.33215
   C      -15.94870         5.71488         1.14882
   N      -16.28796         5.07441         0.25713
   C      -13.94748         7.55531         3.84022
   C      -12.53511         7.56837         3.95339
   C      -11.87569         8.23032         4.95955
   C      -12.64819         8.90819         5.90864
   C      -14.05846         8.89109         5.78900
   C      -14.72436         8.22546         4.76715
   S      -14.81825         9.79268         7.06489
   C      -13.25358        10.17305         7.73363
   C      -12.21389         9.65341         7.03815
  Br      -13.14009        11.22354         9.28245
   C      -11.95141         6.78262         2.85441
   O      -10.77045         6.67124         2.58332
   C      -13.09630         6.25634         2.08496
   C      -12.98987         5.55161         0.91683
   N      -11.88082         4.93289         0.45915
   C      -10.82508         4.43910         1.18372
   S      -11.04791         3.80282         2.78015
   C       -9.41558         3.22998         2.76207
   N       -8.93906         2.59154         3.91409
   O       -7.79224         2.18646         3.90542
   O       -9.71932         2.48938         4.84530
   C       -8.75579         3.49322         1.59224
   C       -9.55193         4.19671         0.66731
   C       -9.06591         4.60713        -0.62631
   C       -9.54498         5.61494        -1.37936
   C       -8.98715         5.94277        -2.65921
   C       -9.40043         6.90167        -3.50265
   C      -10.56455         7.81408        -3.28652
   C       -8.66802         7.11241        -4.80355
   N       -7.24810         6.88790        -4.64780
   C       -6.39252         6.98868        -5.74165
   C       -6.76412         6.96523        -7.02494
   N       -5.91557         6.86684        -8.13843
   C       -4.48361         6.94067        -7.88254
   C       -3.62145         6.73690        -9.11893
   C       -6.40584         7.49801        -9.29718
   C       -6.99321         8.72885        -9.30796
   S       -7.53073         9.19972       -10.86676
   C       -6.98101         7.71931       -11.53543
   C       -6.40604         6.90351       -10.60512
   N       -5.90770         5.62405       -10.86658
   C       -6.43827         4.51570       -10.08844
   C       -7.81148         4.07747       -10.58854
   C       -5.22302         5.35826       -12.01685
   S       -4.43636         6.62489       -12.93922
   C       -3.69787         5.52734       -14.05256
   C       -4.02022         4.24112       -13.72199
   C       -4.87655         4.15462       -12.57292
   O       -5.17161         2.84829       -12.29385
   C       -4.51854         2.13163       -13.24477
   N       -4.64370         0.72376       -13.19248
   O       -4.05453         0.09176       -14.04989
   O       -5.32356         0.24703       -12.30778
   C       -3.81088         2.89362       -14.13134
   H      -10.79873         8.21931         5.01788
   H      -15.80019         8.24330         4.72044
   H      -11.18301         9.78829         7.30988
   H      -13.84104         5.48003         0.25241
   H      -11.84334         4.72029        -0.53261
   H       -7.73284         3.20891         1.42440
   H       -8.20630         4.05458        -0.98207
   H      -10.33826         6.24134        -0.99964
   H       -8.14236         5.34027        -2.96701
   H      -11.15913         7.53330        -2.42371
   H      -11.20568         7.80883        -4.16765
   H      -10.21363         8.83673        -3.14322
   H       -8.88677         8.12036        -5.19347
   H       -9.04071         6.38932        -5.53969
   H       -6.87803         7.32669        -3.81549
   H       -5.35403         7.00506        -5.45211
   H       -7.80653         6.95610        -7.30460
   H       -4.25272         6.15666        -7.15544
   H       -4.23347         7.91381        -7.43010
   H       -3.77557         5.74848        -9.54048
   H       -2.57602         6.82981        -8.83546
   H       -3.83641         7.48413        -9.87921
   H       -7.13335         9.38654        -8.47325
   H       -7.12264         7.52956       -12.57995
   H       -6.50149         4.84824        -9.05072
   H       -5.73760         3.68251       -10.15005
   H       -8.51337         4.90798       -10.54885
   H       -8.18737         3.26953        -9.96782
   H       -7.74779         3.72147       -11.61358
   H       -3.09831         5.90489       -14.85239
   H       -3.22849         2.52711       -14.95084
*
