# ORCA input file
# SCF done       -167.334397523575          0.005567914458
! CAM-B3LYP def2-SVP def2/J RIJCOSX Grid4 TightSCF
%maxcore 5000
%tddft
    Mode sTDDFT
    Ethresh 5.0
    maxcore 5000
end

%pal
  nprocs 6
  end
* xyz 0 1
   C       -7.39782        -0.69325         1.32843
   C       -6.87086        -1.94922         1.17185
   C       -7.62709        -3.13158         1.30337
   N       -8.20414        -4.11643         1.43402
   C       -5.49697        -2.20176         0.98820
   N       -4.38684        -2.47252         0.87173
   C       -8.78001        -0.38106         1.67034
   C       -8.85393         0.98750         2.02795
   C      -10.02350         1.59248         2.41653
   C      -11.18216         0.80942         2.44395
   C      -11.10047        -0.55642         2.08611
   C       -9.91397        -1.17167         1.70273
   S      -12.65396        -1.33387         2.17679
   C      -13.38177         0.17230         2.67009
   C      -12.50799         1.19999         2.77904
  Br      -15.23429         0.25130         2.95271
   C       -7.51497         1.59650         1.91570
   O       -7.21250         2.74731         2.15884
   C       -6.63383         0.53479         1.38666
   C       -5.37514         0.76134         0.89408
   C       -4.57255         1.89148         1.18590
   O       -3.67098         2.29611         0.24952
   C       -3.04500         3.37734         0.72365
   C       -3.46835         3.68785         1.97969
   C       -4.44853         2.72145         2.30709
   S       -5.19267         2.52193         3.86891
   C       -5.19826         0.78226         3.89904
   C       -6.17236        -0.03912         4.35438
   C       -6.11329        -1.46552         4.27810
   C       -7.28001        -2.08239         4.58030
   C       -8.32645        -1.19690         4.94872
   S       -7.74000         0.46060         4.98074
   C       -9.63777        -1.52630         5.19312
   C      -10.21996        -2.81781         5.11684
   C      -11.55126        -2.83588         5.37619
   C      -12.10479        -1.56040         5.67000
   S      -10.85160        -0.33069         5.60573
   C      -13.41338        -1.28778         5.95071
   C      -13.91698         0.00700         6.18673
   O      -13.10903         1.08910         6.12520
   C      -13.86272         2.17573         6.35670
   C      -15.16421         1.83953         6.56453
   C      -15.21362         0.42965         6.46789
   S      -16.62466        -0.59651         6.49474
   C      -17.68058         0.13780         7.62869
   C      -17.35091         0.84962         8.74116
   C      -18.26381         1.61290         9.56954
   C      -19.53140         2.00649         9.23076
   C      -20.36385         2.78481        10.06104
   N      -21.08444         3.41616        10.69506
   C      -20.15350         1.72778         7.99566
   N      -20.70629         1.56208         7.00297
   C      -17.55008         1.98164        10.78591
   C      -16.21412         1.51951        10.68942
   C      -16.03567         0.79666         9.41595
   O      -15.04653         0.19216         9.05365
   C      -15.28898         1.71785        11.68514
   C      -15.70209         2.40595        12.83116
   C      -17.04022         2.85908        12.92019
   C      -17.97587         2.65938        11.91324
   S      -17.34132         3.67316        14.42605
   C      -15.68721         3.40025        14.90776
   C      -14.94684         2.73329        13.99006
  Br      -15.09651         4.01586        16.57726
   H      -10.04123         2.63430         2.69437
   H       -9.90604        -2.21560         1.43446
   H      -12.78535         2.19481         3.07481
   H       -4.95220         0.07598         0.16986
   H       -2.31415         3.83767         0.08794
   H       -3.13136         4.48785         2.60540
   H       -4.31519         0.33466         3.46555
   H       -5.21472        -1.96434         3.95964
   H       -7.43047        -3.14559         4.53110
   H       -9.64194        -3.68755         4.86257
   H      -12.16657        -3.71757         5.36054
   H      -14.12367        -2.09921         5.99135
   H      -13.36724         3.12592         6.34464
   H      -15.98324         2.50118         6.75847
   H      -18.71577        -0.04836         7.37983
   H      -14.27871         1.35326        11.58298
   H      -18.98539         3.01694        12.02975
   H      -13.91088         2.47997        14.12466
*
