# ORCA input file
# SCF done       -197.735858971625          0.000830512287
! CAM-B3LYP def2-SVP def2/J RIJCOSX Grid4 TightSCF
%maxcore 5000
%tddft
    Mode sTDDFT
    Ethresh 5.0
    maxcore 5000
end

%pal
  nprocs 6
  end
* xyz 0 1
   C      -10.00376         1.56019         6.44273
   C       -9.55312         0.43826         7.09496
   C       -9.82142         0.15160         8.44891
   N      -10.01415        -0.14879         9.54073
   C       -8.76276        -0.59013         6.54455
   N       -8.10888        -1.47252         6.20451
   C      -10.78902         2.62678         7.05947
   C      -11.06858         3.60923         6.07897
   C      -11.78841         4.74646         6.34859
   C      -12.25820         4.92524         7.65438
   C      -11.97388         3.94038         8.62859
   C      -11.24456         2.78962         8.35409
   S      -12.64559         4.35965        10.17601
   C      -13.29045         5.83205         9.50049
   C      -13.01843         6.00332         8.18541
  Br      -14.26263         7.00422        10.59585
   C      -10.47008         3.19322         4.79530
   O      -10.52021         3.81234         3.74803
   C       -9.81739         1.90674         5.05067
   C       -9.17139         1.12819         4.12037
   C       -8.99705         1.29692         2.74277
   C       -8.38511         0.29157         1.96274
   C       -8.32237         0.66341         0.62647
   C       -8.90292         1.93221         0.36684
   S       -9.51751         2.68742         1.78563
   C       -8.79772         2.13312        -1.01054
   C       -8.17422         1.01550        -1.53757
   N       -7.89024         0.11211        -0.55989
   C       -7.22468        -1.15410        -0.74135
   C       -5.71589        -0.98909        -0.90416
   C       -7.92253         1.01682        -3.00209
   C       -8.80942         2.13788        -3.55991
   S       -9.20583         3.33880        -2.20972
   C       -7.81917        -0.93032         2.54501
   C       -6.46794        -1.03423         2.65953
   S       -5.93049        -2.44985         3.47298
   C       -7.57744        -2.94564         3.68862
   C       -8.50830        -2.05166         3.13297
   C       -9.89202        -2.30147         3.30311
   C      -10.89464        -1.44274         2.57504
   C      -10.89108        -1.80235         1.08607
   C      -10.30972        -3.38493         4.06736
   C      -11.70891        -3.42065         4.63120
   C      -11.87363        -2.28545         5.64827
   C       -9.37293        -4.36056         4.48405
   C       -9.56219        -5.64035         5.13173
   C       -8.37029        -6.17022         5.56065
   S       -6.98873        -5.27629         5.10211
   C       -8.00353        -4.09144         4.33640
   C      -10.72520        -6.47928         5.21749
   C      -11.73643        -6.53555         4.31070
   C      -12.84430        -7.41352         4.33441
   C      -13.13112        -8.43666         5.20345
   C      -14.29177        -9.25421         5.14586
   C      -14.34507       -10.23685         6.08680
   C      -13.22135       -10.26260         6.94161
   S      -12.11406        -8.97616         6.52870
   C      -12.91107       -11.13382         7.96771
   C      -13.65116       -12.21603         8.48837
   C      -13.01923       -12.87325         9.50027
   C      -11.73823       -12.35355         9.82727
   S      -11.38151       -10.97866         8.80505
   C      -10.90635       -12.84735        10.80010
   C       -9.61305       -12.40206        11.13738
   S       -8.78847       -13.13284        12.51052
   C       -7.36264       -12.18752        12.33553
   C       -7.49101       -11.33467        11.26646
   C       -8.75258       -11.45863        10.59965
   O       -8.81197       -10.61321         9.54698
   C       -7.62523        -9.95440         9.53693
   N       -7.40920        -8.99713         8.52622
   O       -6.33090        -8.42936         8.53265
   O       -8.29251        -8.79906         7.71395
   C       -6.77927       -10.33905        10.54490
   H      -11.98299         5.47532         5.57754
   H      -11.05522         2.07095         9.13341
   H      -13.33917         6.85347         7.61148
   H       -8.74954         0.20034         4.48908
   H       -7.64251        -1.64328        -1.62729
   H       -7.43668        -1.77376         0.13243
   H       -5.29668        -0.48191        -0.03968
   H       -5.48488        -0.40772        -1.79309
   H       -5.24767        -1.96497        -0.99422
   H       -8.16883         0.06201        -3.47116
   H       -6.86662         1.22888        -3.20136
   H       -9.76304         1.74545        -3.91331
   H       -8.33281         2.69327        -4.36358
   H       -5.74567        -0.30879         2.33790
   H      -10.67019        -0.38517         2.68883
   H      -11.89775        -1.60409         2.95965
   H       -9.91008        -1.64044         0.64795
   H      -11.61209        -1.18814         0.55099
   H      -11.15643        -2.84904         0.95092
   H      -11.87055        -4.35281         5.16438
   H      -12.47093        -3.34384         3.85347
   H      -11.13920        -2.39833         6.44313
   H      -12.86692        -2.32255         6.09055
   H      -11.73257        -1.30800         5.19237
   H       -8.24859        -7.10270         6.07933
   H      -10.68412        -7.19904         6.02132
   H      -11.70793        -5.85421         3.46999
   H      -13.57499        -7.26709         3.54761
   H      -15.05218        -9.08699         4.40263
   H      -15.14835       -10.94561         6.18166
   H      -14.62255       -12.47791         8.10788
   H      -13.42456       -13.72221        10.02221
   H      -11.27894       -13.67659        11.38635
   H       -6.54282       -12.31786        13.00952
   H       -5.79664        -9.95525        10.72447
*
