# ORCA input file
# SCF done       -169.319034847680          0.000758799900
! CAM-B3LYP def2-SVP def2/J RIJCOSX Grid4 TightSCF
%maxcore 5000
%tddft
    Mode sTDDFT
    Ethresh 5.0
    maxcore 5000
end

%pal
  nprocs 6
  end
* xyz 0 1
   C       -9.05303         2.04286        -9.14534
   C       -8.98378         2.75590       -10.31250
   C       -8.92221         2.17004       -11.59454
   N       -8.87888         1.74964       -12.66142
   C       -8.91587         4.16236       -10.39185
   N       -8.81867         5.29903       -10.52684
   C       -8.98994         0.59480        -9.01939
   C       -8.90339         0.25771        -7.64540
   C       -8.81568        -1.04138        -7.20642
   C       -8.81265        -2.05668        -8.16795
   C       -8.90407        -1.71075        -9.53838
   C       -8.99300        -0.39800        -9.98263
   S       -8.88869        -3.11924       -10.55495
   C       -8.75856        -4.13936        -9.14668
   C       -8.72940        -3.46237        -7.97394
  Br       -8.67604        -6.00036        -9.35719
   C       -8.92826         1.48587        -6.82849
   O       -8.90404         1.55347        -5.62066
   C       -9.08137         2.60222        -7.80369
   C       -9.36469         3.88391        -7.46915
   C       -9.23215         4.45711        -6.15838
   C       -8.11893         4.22585        -5.33004
   N       -7.96047         4.83511        -4.18421
   C       -8.88194         5.72629        -3.79999
   N       -9.97607         6.00829        -4.50891
   C      -10.15012         5.38686        -5.65048
   C       -8.57356         6.42316        -2.57071
   C       -9.28389         7.36785        -1.93681
   C      -10.60993         7.89650        -2.35639
   C       -8.64931         8.08145        -0.76330
   N       -8.06431         9.30820        -1.26605
   C       -8.66859        10.50739        -1.19335
   C       -8.42636        11.53183        -2.05968
   C       -8.96834        12.81803        -1.92865
   C       -8.87155        13.78839        -2.89491
   C       -9.35807        15.11444        -2.84754
   C       -9.17436        15.82060        -3.99910
   C       -8.55432        15.07804        -5.02855
   S       -8.14787        13.48015        -4.47142
   C       -8.34494        15.45384        -6.34498
   C       -8.64805        16.67224        -6.98047
   C       -8.44852        16.64722        -8.33065
   C       -8.01838        15.39868        -8.83544
   S       -7.75791        14.29232        -7.51794
   C       -7.78829        15.12019       -10.17632
   C       -7.48385        13.92393       -10.80836
   C       -7.55878        12.59152       -10.42049
   C       -8.27503        11.88722        -9.40944
   C       -9.40760        12.31446        -8.73790
   C      -10.01435        11.61377        -7.68332
   N      -10.52194        11.10916        -6.78274
   C      -10.13025        13.46070        -9.11073
   N      -10.76562        14.37078        -9.40895
   C       -7.73330        10.52898        -9.33379
   C       -6.83467        10.34497       -10.41128
   C       -6.72622        11.61782       -11.16130
   O       -6.06641        11.82521       -12.15832
   C       -6.20664         9.15011       -10.65465
   C       -6.46217         8.08907        -9.77731
   C       -7.34147         8.29108        -8.69266
   C       -7.99327         9.49649        -8.45577
   S       -7.49660         6.85456        -7.72228
   C       -6.40015         6.01552        -8.78752
   C       -5.93600         6.76699        -9.80910
  Br       -5.96311         4.22323        -8.44527
   H       -8.74876        -1.26610        -6.15351
   H       -9.06570        -0.18428       -11.03599
   H       -8.65246        -3.93328        -7.01102
   H       -9.71531         4.56578        -8.23507
   H       -7.31833         3.56920        -5.64101
   H      -11.06372         5.62016        -6.18333
   H       -7.61880         6.11618        -2.16318
   H      -10.99155         7.34159        -3.20608
   H      -10.52282         8.94811        -2.63408
   H      -11.31301         7.83318        -1.52606
   H       -7.86017         7.47231        -0.31335
   H       -9.38759         8.33385        -0.00025
   H       -7.43981         9.17453        -2.05193
   H       -9.35507        10.63557        -0.36661
   H       -7.79511        11.34664        -2.91926
   H       -9.51224        13.06234        -1.02565
   H       -9.83444        15.50509        -1.96536
   H       -9.48977        16.83769        -4.14551
   H       -9.01654        17.52401        -6.43792
   H       -8.64557        17.47469        -8.98826
   H       -7.80257        15.99565       -10.81482
   H       -7.04868        14.03239       -11.79893
   H       -5.54029         9.03213       -11.49464
   H       -8.66231         9.60020        -7.61754
   H       -5.25658         6.40779       -10.56048
*
