# ORCA input file
# SCF done       -215.696252398871          0.000891583261
! CAM-B3LYP def2-SVP def2/J RIJCOSX Grid4 TightSCF
%maxcore 5000
%tddft
    Mode sTDDFT
    Ethresh 5.0
    maxcore 5000
end

%pal
  nprocs 6
  end
* xyz 0 2
   C       -5.20513        -2.42116         0.46848
   C       -6.08117        -3.04180         1.32818
   C       -5.94543        -4.37121         1.77371
   N       -5.89459        -5.44555         2.17781
   C       -7.23996        -2.46525         1.88437
   N       -8.20352        -2.08293         2.38148
   C       -4.01835        -3.04766        -0.10998
   C       -3.39314        -2.11997        -0.97671
   C       -2.24644        -2.41134        -1.67256
   C       -1.68436        -3.68157        -1.50311
   C       -2.31431        -4.60125        -0.63382
   C       -3.47695        -4.30674         0.06838
   S       -1.45273        -6.11009        -0.56645
   C       -0.27298        -5.48967        -1.69010
   C       -0.51048        -4.22111        -2.09799
  Br        1.16148        -6.57692        -2.22058
   C       -4.16137        -0.85475        -0.97534
   O       -3.89502         0.13994        -1.61867
   C       -5.28214        -1.07124        -0.03732
   C       -6.21509        -0.12044         0.30689
   C       -6.27109         1.18641        -0.19668
   C       -7.22192         2.06777         0.24478
   C       -7.35128         3.39149        -0.19759
   O       -8.32040         4.18642         0.33420
   C       -8.25883         5.41153        -0.24963
   C       -7.20899         5.41231        -1.17326
   C       -6.63254         4.13430        -1.14588
   O       -5.59677         3.70155        -1.87988
   O       -6.74047         6.41339        -1.97009
   C       -9.18384         6.38776         0.17765
   C       -9.41211         7.61812        -0.37020
   C      -10.34762         8.52472         0.15973
   C      -10.61204         9.74271        -0.40470
   C      -11.52032        10.69963         0.07492
   C      -12.24210        10.77335         1.28073
   O      -12.15766         9.74418         2.16099
   C      -12.60353         9.99776         3.47624
   C      -14.00948        10.56877         3.50084
   S      -13.98236        12.26942         2.84623
   C      -12.95813        11.96221         1.45409
   C      -12.80544        12.88893         0.40790
   S      -11.83993        12.13960        -0.88163
   N      -13.18740        11.56777        -1.82967
   C      -12.85601        10.66352        -2.91144
   C      -13.23669        14.19700         0.20954
   C      -14.01682        14.95543         1.05409
   C      -14.43831        16.24821         0.73852
   C      -15.23694        17.00695         1.55799
   C      -15.70280        18.28661         1.23412
   O      -15.37672        18.90186         0.06753
   C      -16.00991        20.10735         0.02204
   C      -16.75917        20.26758         1.19830
   C      -16.56179        19.12038         1.96887
   O      -17.08334        18.83723         3.18050
   O      -17.54305        21.30993         1.57623
   C      -15.87640        20.96641        -1.07637
   C      -15.09499        20.68888        -2.16923
   C      -14.97489        21.47863        -3.32256
   C      -15.53023        22.71909        -3.52967
   C      -15.39349        23.48864        -4.69177
   C      -14.99354        23.13865        -5.96384
   C      -14.90811        21.88866        -6.66681
   C      -15.64608        20.74888        -6.43081
   C      -15.54419        19.57038        -7.19007
   N      -15.47723        18.57051        -7.75355
   C      -16.64277        20.65353        -5.44336
   N      -17.49586        20.53006        -4.68384
   C      -14.08576        22.10785        -7.85725
   C      -13.85389        23.49808        -7.99528
   C      -14.47639        24.20286        -6.85313
   O      -14.52031        25.40026        -6.66405
   C      -13.14243        24.02796        -9.04232
   C      -12.62196        23.14127        -9.99252
   C      -12.84623        21.75464        -9.83731
   C      -13.57685        21.21862        -8.78245
   S      -12.10434        20.84036       -11.11661
   C      -11.51484        22.31633       -11.83424
   C      -11.85337        23.43549       -11.15292
  Br      -10.50513        22.23787       -13.41433
   H       -1.79443        -1.68132        -2.32547
   H       -3.91669        -5.04381         0.71863
   H        0.11463        -3.68557        -2.78908
   H       -6.97109        -0.38877         1.03385
   H       -5.54977         1.49758        -0.93611
   H       -7.93894         1.75499         0.99346
   H       -5.29224         4.42434        -2.44540
   H       -7.14097         7.24832        -1.70712
   H       -9.78124         6.08685         1.02729
   H       -8.88959         7.93043        -1.26627
   H      -10.87838         8.23631         1.05256
   H      -10.08899        10.01469        -1.31478
   H      -11.91275        10.68574         3.98267
   H      -12.57136         9.02621         3.97600
   H      -14.39045        10.63800         4.51692
   H      -14.68276         9.96834         2.88850
   H      -13.69854        12.37860        -2.16554
   H      -12.34650         9.79881        -2.48898
   H      -12.22660        11.11308        -3.68649
   H      -13.78779        10.32997        -3.36489
   H      -12.92304        14.65446        -0.72187
   H      -14.33122        14.54091         1.99974
   H      -14.13343        16.67255        -0.20891
   H      -15.56482        16.62063         2.51129
   H      -17.64793        19.57506         3.44589
   H      -17.57820        21.96572         0.87135
   H      -16.44562        21.88426        -1.03879
   H      -14.54676        19.75747        -2.15064
   H      -14.34434        21.07610        -4.10486
   H      -16.04954        23.19696        -2.71088
   H      -15.55482        24.55695        -4.57670
   H      -12.99016        25.09235        -9.12843
   H      -13.72023        20.15356        -8.70574
   H      -11.57396        24.42889       -11.45305
*
