# ORCA input file
# SCF done       -193.369613703515          0.001073167351
! CAM-B3LYP def2-SVP def2/J RIJCOSX Grid4 TightSCF
%maxcore 5000
%tddft
    Mode sTDDFT
    Ethresh 5.0
    maxcore 5000
end

%pal
  nprocs 6
  end
* xyz 0 1
   C       -5.49623        -2.39026         6.08868
   C       -5.58712        -3.61110         5.45382
   C       -4.99597        -4.79697         5.93001
   N       -4.54540        -5.80052         6.26182
   C       -6.22224        -3.84824         4.22316
   N       -6.67542        -4.13023         3.20376
   C       -4.72129        -2.13525         7.30187
   C       -4.76937        -0.74848         7.58387
   C       -4.13143        -0.18892         8.66222
   C       -3.41516        -1.04123         9.51117
   C       -3.37612        -2.42489         9.22394
   C       -4.01772        -2.99007         8.12719
   S       -2.44349        -3.29667        10.40318
   C       -2.12385        -1.80924        11.25461
   C       -2.68432        -0.71541        10.68652
  Br       -1.08096        -1.84122        12.81393
   C       -5.60192        -0.07517         6.56383
   O       -5.82753         1.11795         6.49545
   C       -6.08668        -1.14848         5.67508
   C       -7.02904        -0.97077         4.67424
   C       -7.59505         0.24750         4.33180
   C       -8.59408         0.38634         3.37850
   C       -9.20821         1.58053         2.96020
   C      -10.15665         1.41425         1.98317
   C      -10.32853         0.07567         1.60270
   S       -9.27679        -0.97413         2.51618
   C      -11.13530        -0.44088         0.58601
   C      -11.86611         0.25434        -0.38313
   C      -12.38715        -0.56757        -1.35681
   C      -12.08233        -1.92599        -1.19322
   S      -11.19378        -2.15792         0.28894
   C      -12.50443        -2.93535        -2.07166
   C      -12.23007        -4.28228        -2.11461
   S      -13.26828        -5.17657        -3.27942
   C      -13.85963        -6.42645        -2.19529
   C      -15.12109        -6.93184        -2.20641
   S      -15.33448        -8.14509        -1.00627
   C      -13.71448        -7.95517        -0.46875
   C      -13.04595        -7.01528        -1.19186
   S      -11.33660        -6.67502        -0.98006
   C      -11.19165        -4.97739        -1.43831
   C       -9.97397        -4.36489        -1.18589
   C       -8.93745        -4.90626        -0.42891
   C       -7.80281        -4.25462         0.01488
   C       -7.45003        -2.90886        -0.10649
   C       -6.47428        -2.27358         0.67915
   C       -6.46556        -0.90353         0.57733
   C       -7.41023        -0.41028        -0.33169
   S       -8.25750        -1.72397        -1.09773
   C       -7.81504         0.90221        -0.57250
   C       -7.38564         2.08482         0.04827
   C       -8.11378         3.18798        -0.31384
   C       -9.13412         2.91861        -1.24493
   S       -9.12439         1.22660        -1.67648
   C      -10.10097         3.79247        -1.71557
   C      -11.06603         3.44311        -2.65005
   C      -12.15815         4.20118        -3.02895
   C      -12.77896         5.31414        -2.37649
   C      -12.78083         5.55316        -1.01653
   C      -13.42223         6.64718        -0.41005
   N      -13.91118         7.54017         0.12245
   C      -12.25458         4.63005        -0.09921
   N      -11.89125         3.85080         0.66443
   C      -13.62017         5.99046        -3.36061
   C      -13.67774         5.18438        -4.52619
   C      -12.81951         3.99234        -4.33299
   O      -12.67000         3.05662        -5.08963
   C      -14.42823         5.53078        -5.62133
   C      -15.14314         6.73420        -5.56961
   C      -15.06816         7.53485        -4.40652
   C      -14.31784         7.17861        -3.29060
   S      -16.02008         8.97981        -4.56197
   C      -16.50328         8.49339        -6.16497
   C      -15.97848         7.31107        -6.56522
  Br      -17.65305         9.59321        -7.15871
   H       -4.18485         0.87210         8.84953
   H       -3.95880        -4.05150         7.95408
   H       -2.58890         0.28040        11.07932
   H       -7.37695        -1.84499         4.13540
   H       -7.25625         1.14173         4.83523
   H       -8.93494         2.53077         3.38260
   H      -10.72594         2.21632         1.54771
   H      -11.98079         1.32333        -0.36116
   H      -12.94930        -0.21125        -2.20200
   H      -13.21828        -2.59126        -2.81200
   H      -15.92425        -6.67151        -2.86471
   H      -13.33601        -8.55136         0.33640
   H       -9.84353        -3.38871        -1.62604
   H       -9.06379        -5.92313        -0.08050
   H       -7.14547        -4.81698         0.66517
   H       -5.85448        -2.83371         1.35555
   H       -5.82563        -0.25771         1.15115
   H       -6.57795         2.09762         0.75777
   H       -7.95391         4.17660         0.07746
   H      -10.07885         4.79893        -1.31977
   H      -10.92143         2.52032        -3.20357
   H      -14.46599         4.89649        -6.49310
   H      -14.28777         7.81919        -2.42446
   H      -16.17081         6.86279        -7.52285
*
