# ORCA input file
# SCF done       -165.441082482811          0.000692110900
! CAM-B3LYP def2-SVP def2/J RIJCOSX Grid4 TightSCF
%maxcore 5000
%tddft
    Mode sTDDFT
    Ethresh 5.0
    maxcore 5000
end

%pal
  nprocs 6
  end
* xyz 0 1
   C       -8.40620         0.43731        -7.65356
   C       -8.41241         1.68784        -8.21830
   C       -7.91804         1.97729        -9.50628
   N       -7.53321         2.27395       -10.54660
   C       -8.92143         2.84650        -7.59905
   N       -9.32782         3.82649        -7.15823
   C       -7.90223        -0.78233        -8.28152
   C       -8.07626        -1.86838        -7.38436
   C       -7.70420        -3.15325        -7.69586
   C       -7.13219        -3.38112        -8.95235
   C       -6.96182        -2.29268        -9.84008
   C       -7.33830        -0.99184        -9.52472
   S       -6.24155        -2.79641       -11.33798
   C       -6.17989        -4.44031       -10.76038
   C       -6.67224        -4.60534        -9.50932
  Br       -5.47253        -5.78287       -11.86220
   C       -8.69933        -1.36862        -6.15033
   O       -9.02590        -2.01781        -5.16262
   C       -8.88617         0.07079        -6.34371
   C       -9.45775         0.87095        -5.38518
   N       -9.82561         0.36013        -4.20506
   C      -10.42077         1.00216        -3.16696
   S      -11.17503         0.02121        -1.94621
   C      -11.76598         1.45732        -1.17520
   N      -12.45248         1.34013         0.03640
   O      -12.86291         2.36536         0.55304
   O      -12.57402         0.22033         0.50111
   C      -11.40092         2.60651        -1.82254
   C      -10.58967         2.37793        -2.95227
   C       -9.86249         3.41984        -3.62288
   C      -10.16320         4.73244        -3.52958
   C       -9.31232         5.75042        -4.06032
   O       -8.30857         5.39734        -4.90689
   C       -7.70377         6.47945        -5.34393
   C       -8.27504         7.60286        -4.78623
   N       -7.91862         8.93699        -5.03056
   O       -6.91202         9.15595        -5.66971
   O       -8.65765         9.80536        -4.57737
   C       -9.31899         7.13754        -3.91198
   N      -10.09616         7.98921        -3.17834
   C      -10.72767         7.82111        -1.98470
   C      -10.54850         6.87279        -1.02333
   C      -11.36203         6.73170         0.14057
   C      -11.06939         5.65063         0.90669
   C      -10.01136         4.85806         0.39659
   S       -9.30143         5.62562        -1.01193
   C       -9.62662         3.59183         0.77192
   C      -10.06055         2.81218         1.86828
   C       -9.61694         1.52867         1.83197
   C       -8.82673         1.20056         0.69092
   S       -8.55794         2.64926        -0.25603
   C       -8.47487        -0.08086         0.36421
   C       -7.92244        -0.64579        -0.80690
   C       -7.38895        -0.14758        -1.99250
   C       -6.94799         1.21120        -2.31255
   O       -7.12153         1.74318        -3.38648
   O       -6.24869         1.78581        -1.32538
   C       -7.16693        -1.15766        -2.96223
   C       -7.48716        -2.40274        -2.53389
   S       -8.10121        -2.38639        -0.93314
   H       -7.85111        -3.95967        -6.99459
   H       -7.18922        -0.19730       -10.23655
   H       -6.71110        -5.55101        -9.00024
   H       -9.65593         1.91543        -5.56737
   H       -9.65819        -0.65569        -4.12447
   H      -11.67382         3.57673        -1.45123
   H       -8.93435         3.13751        -4.09635
   H      -11.08336         5.07243        -3.08092
   H       -6.90500         6.38435        -6.05325
   H      -10.03809         8.94817        -3.52651
   H      -11.46102         8.59129        -1.78056
   H      -12.16396         7.41951         0.34120
   H      -11.61758         5.35762         1.78284
   H      -10.70414         3.21185         2.63031
   H       -9.87305         0.77788         2.55812
   H       -8.77779        -0.82124         1.09603
   H       -5.96115         2.67516        -1.58667
   H       -6.74758        -0.93867        -3.92785
   H       -7.40428        -3.32763        -3.06673
*
