# ORCA input file
# SCF done       -153.737534141553          0.000684478068
! CAM-B3LYP def2-SVP def2/J RIJCOSX Grid4 TightSCF
%maxcore 5000
%tddft
    Mode sTDDFT
    Ethresh 5.0
    maxcore 5000
end

%pal
  nprocs 6
  end
* xyz 0 1
   C       -3.52695        -2.64895        -2.71482
   C       -3.50089        -3.59870        -1.72327
   C       -3.01479        -4.90950        -1.89324
   N       -2.63175        -5.98914        -1.97495
   C       -3.95694        -3.37655        -0.40923
   N       -4.31518        -3.23756         0.67303
   C       -3.05966        -2.83479        -4.08732
   C       -3.24239        -1.62343        -4.80349
   C       -2.89811        -1.48323        -6.12559
   C       -2.34800        -2.59294        -6.77681
   C       -2.17047        -3.79701        -6.05630
   C       -2.51744        -3.93784        -4.71668
   S       -1.47920        -5.04112        -7.05200
   C       -1.43964        -3.94200        -8.40516
   C       -1.91785        -2.70597        -8.12716
  Br       -0.77008        -4.52894       -10.05612
   C       -3.83948        -0.62944        -3.90328
   O       -4.14271         0.53127        -4.16965
   C       -4.01095        -1.29513        -2.61130
   C       -4.57212        -0.63965        -1.53724
   N       -4.96998         0.62961        -1.67081
   C       -5.56023         1.41819        -0.74316
   S       -5.89264         0.85507         0.86738
   C       -6.60162         2.39660         1.23006
   N       -7.09374         2.61654         2.52130
   O       -7.56167         3.71579         2.76460
   O       -7.01746         1.69185         3.31098
   C       -6.58738         3.27324         0.17877
   C       -5.98517         2.73717        -0.97682
   C       -5.78934         3.42694        -2.21545
   C       -6.35016         4.61977        -2.52696
   C       -6.13963         5.30100        -3.74979
   S       -5.29416         4.50985        -5.05834
   C       -5.61598         5.83046        -6.10896
   C       -6.32412         6.82626        -5.52232
   C       -6.71637         8.08248        -6.22712
   C       -6.61884         6.55428        -4.14472
   C       -7.31396         7.50450        -3.34051
   C       -7.27121         7.65478        -1.98702
   C       -8.03229         8.62596        -1.30775
   C       -7.98043         8.80107         0.05110
   C       -8.68217         9.72467         0.83548
   C       -9.73492        10.60117         0.51599
   C      -10.52856        10.73909        -0.64012
   C      -11.53004        11.66697        -0.67151
   C      -11.81424        12.47644         0.44941
   C      -11.09127        12.35790         1.59952
   C      -10.02631        11.43411         1.66072
   C       -9.17628        11.08971         2.71703
   C       -8.35415         9.96607         2.25580
   C       -7.46456         9.28654         2.98872
   C       -9.08553        11.72130         3.98271
   O       -8.52677        11.04123         5.04765
   C       -8.58092        11.90422         6.06395
   C       -8.32288        12.27572         7.49483
   C       -8.94017        13.66378         7.11298
   C       -9.12382        13.10646         5.71394
   C       -9.46437        13.01932         4.36196
   H       -3.04956        -0.54873        -6.64271
   H       -2.36238        -4.87702        -4.21263
   H       -1.96640        -1.90617        -8.84337
   H       -4.71513        -1.11180        -0.57415
   H       -4.80708         1.01465        -2.62125
   H       -6.98875         4.26602         0.26397
   H       -5.13707         2.96495        -2.94448
   H       -7.03546         5.08564        -1.83573
   H       -5.25223         5.79309        -7.11747
   H       -6.33356         8.07772        -7.24440
   H       -6.31775         8.95234        -5.70667
   H       -7.80152         8.17590        -6.26661
   H       -7.91099         8.21904        -3.89356
   H       -6.60675         7.04311        -1.39249
   H       -8.66060         9.25851        -1.91448
   H       -7.28146         8.16605         0.58267
   H      -10.37583        10.09521        -1.49040
   H      -12.14106        11.77164        -1.55625
   H      -12.63563        13.17556         0.39271
   H      -11.35443        12.93533         2.47080
   H       -7.28843         9.52082         4.02293
   H       -6.90241         8.46085         2.58676
   H       -7.27404        12.30156         7.78608
   H       -8.88950        11.70653         8.22991
   H       -8.24822        14.49981         7.18215
   H       -9.86465        13.90564         7.63194
   H       -9.86436        13.76902         3.71225
*
