# ORCA input file
# SCF done       -176.250453696854          0.000495613491
! CAM-B3LYP def2-SVP def2/J RIJCOSX Grid4 TightSCF
%maxcore 5000
%tddft
    Mode sTDDFT
    Ethresh 5.0
    maxcore 5000
end

%pal
  nprocs 6
  end
* xyz 0 1
   C      -11.08638         6.41667         0.73015
   C      -10.50288         5.95469        -0.41728
   C      -10.97358         4.83890        -1.14221
   N      -11.31716         3.94549        -1.77504
   C       -9.39625         6.55981        -1.04902
   N       -8.50217         7.01289        -1.60859
   C      -12.24411         5.84198         1.39906
   C      -12.69000         6.73586         2.40659
   C      -13.74301         6.44593         3.24028
   C      -14.35707         5.19810         3.10348
   C      -13.89388         4.30361         2.10644
   C      -12.85501         4.61148         1.23826
   S      -14.75726         2.80267         2.14821
   C      -15.70723         3.38005         3.48500
   C      -15.40714         4.64019         3.87890
  Br      -17.00275         2.26294         4.24828
   C      -11.79429         7.90339         2.45129
   O      -11.94675         8.93862         3.05717
   C      -10.67109         7.56799         1.52083
   C       -9.47694         8.20268         1.49920
   C       -9.03545         9.12229         2.51876
   C       -9.15974         8.89276         3.86616
   C       -8.74397         9.84018         4.92977
   C       -8.12514        11.06781         4.62214
   C       -7.84882        11.43922         3.35236
   S       -8.21355        10.53340         1.93275
   N       -9.02223         9.40124         6.13757
   C       -9.60031         8.17454         5.97314
   C       -9.68223         7.81785         4.60609
   S      -10.38418         6.26913         4.38701
   C      -10.65615         6.12967         6.12107
   C      -10.15796         7.21423         6.82175
   C      -11.38110         4.99635         6.56056
   C      -11.67348         4.69490         7.85105
   C      -12.46411         3.57404         8.19954
   O      -12.64971         3.28087         9.51620
   C      -13.14805         2.63369         7.44541
   C      -13.50937         2.22742         6.08839
   O      -13.24716         2.72169         5.01345
   N      -14.28847         1.09737         6.27249
   C      -14.49390         0.72674         7.60896
   O      -15.14174        -0.22396         7.96418
   C      -13.75689         1.73663         8.35720
   C      -13.43035         2.16597         9.63621
   C      -13.77653         1.65643        10.90022
   C      -13.38019         2.24926        12.06850
   C      -13.70530         1.79252        13.34758
   C      -13.31144         2.43530        14.50085
   C      -13.59311         2.06647        15.83642
   C      -13.07861         2.91379        16.77413
   C      -12.36108         3.99822        16.22904
   S      -12.35528         3.90414        14.48091
   C      -11.73145         5.03955        16.88459
   C      -11.65798         5.30334        18.26961
   C      -10.97813         6.44222        18.57357
   C      -10.46537         7.15129        17.45258
   S      -10.89994         6.28765        15.98768
   C       -9.70809         8.28756        17.55936
   C       -9.06424         9.12325        16.62127
   O       -8.17279         9.98958        17.19210
   C       -7.58899        10.68609        16.21089
   C       -8.06993        10.31792        14.99600
   C       -9.04727         9.30951        15.22791
   C       -9.87626         8.69961        14.23384
   C       -9.63399         8.73478        12.91020
   C      -10.46405         8.12134        11.89968
   C      -11.36615         7.16290        12.10612
   H      -14.05574         7.14415         4.00086
   H      -12.53224         3.89687         0.49913
   H      -15.89049         5.14816         4.69351
   H       -8.77440         8.01433         0.69702
   H       -7.86310        11.71907         5.44232
   H       -7.36925        12.37560         3.11798
   H      -10.22470         7.31293         7.88876
   H      -11.74974         4.34151         5.78111
   H      -11.30720         5.29547         8.67022
   H      -14.69694         0.58015         5.50692
   H      -14.38705         0.76615        10.90048
   H      -12.77330         3.14418        12.00170
   H      -14.30063         0.89529        13.44767
   H      -14.17004         1.18735        16.06321
   H      -13.19719         2.78681        17.83541
   H      -12.10574         4.65136        18.99780
   H      -10.82135         6.80307        19.57490
   H       -9.49661         8.59195        18.57916
   H       -6.85366        11.41226        16.49793
   H       -7.78972        10.72997        14.04934
   H      -10.76711         8.20965        14.58991
   H       -8.76003         9.25528        12.54212
   H      -10.29342         8.47817        10.89089
   H      -11.54474         6.73889        13.07945
   H      -11.94837         6.75497        11.29764
*
