# ORCA input file
# SCF done       -206.946131862983          0.000272181070
! CAM-B3LYP def2-SVP def2/J RIJCOSX Grid4 TightSCF
%maxcore 5000
%tddft
    Mode sTDDFT
    Ethresh 5.0
    maxcore 5000
end

%pal
  nprocs 6
  end
* xyz 0 1
   C        7.45852         5.92750        -1.54003
   C        7.45708         4.66305        -1.98791
   C        6.90584         4.16379        -3.21255
   C        7.05787         2.83028        -3.39101
   C        7.73636         2.17035        -2.33386
   S        8.17934         3.31993        -1.08764
   C        8.03799         0.82731        -2.24109
   C        7.73930        -0.19520        -3.16694
   C        8.18137        -1.42994        -2.78754
   C        8.85143        -1.45285        -1.54848
   S        8.89879         0.16277        -0.86691
   C        9.41298        -2.55536        -0.92977
   C       10.07302        -2.52782         0.28654
   C       10.65760        -3.62628         0.89149
   C       11.35217        -3.64598         2.11686
   C       11.84722        -4.87025         2.46481
   C       11.56581        -5.88641         1.52795
   S       10.64191        -5.23352         0.18975
   C       11.93613        -7.21522         1.57779
   C       12.70510        -7.86016         2.57871
   C       12.93410        -9.17663         2.35227
   C       12.35088        -9.67830         1.14648
   S       11.49618        -8.35777         0.32701
   C       12.37695       -10.91932         0.62340
   C       13.06206       -12.10344         1.22253
   C       13.80771       -12.88375         0.12999
   C       14.44078       -14.13216         0.72462
   C       13.35161       -15.03158         1.32483
   C       12.68985       -14.26967         2.47554
   C       12.03097       -13.00890         1.92005
   N       13.81027       -16.35979         1.67220
   C       14.90065       -16.41464         2.63486
   C       14.84972       -17.68859         3.47121
   C       14.02190       -17.19969         0.50000
   C       14.26540       -16.42910        -0.80252
   S       15.44237       -15.05786        -0.51241
   C       14.75002       -17.37945        -1.88379
   C       13.64263       -18.39560        -2.16088
   C       13.23016       -19.12593        -0.88477
   C       12.82804       -18.15994         0.23469
   C       12.45043       -18.89578         1.47663
   C       11.64278       -18.39000         2.41370
   C       11.28764       -19.02749         3.65354
   C       11.39329       -20.34481         3.91876
   C       11.04256       -20.94023         5.16373
   O       10.69275       -20.18796         6.23948
   C       10.40364       -21.02223         7.27263
   C       10.56615       -22.33293         6.85214
   C       10.98088       -22.28272         5.50529
   O       11.26060       -23.33626         4.70008
   O       10.38850       -23.49704         7.54325
   C       10.03192       -20.50698         8.54823
   C       10.01968       -19.19559         8.86324
   C        9.66848       -18.69045        10.15674
   C        9.74349       -17.39477        10.47826
   C        9.44322       -16.77069        11.80510
   C       10.75757       -16.27647        12.43806
   C       10.46177       -15.56911        13.75245
   C        9.77825       -16.54187        14.72673
   C        8.44352       -16.95899        14.10610
   C        8.70555       -17.68270        12.78625
   N        9.66708       -16.08625        16.09171
   C        8.64555       -15.12571        16.44837
   C        8.80781       -13.69682        15.90993
   C       10.93086       -15.92787        16.79937
   C       12.16697       -16.00270        15.90448
   S       11.98377       -14.85345        14.49328
   C       13.41931       -15.66919        16.69990
   C       13.59150       -16.69941        17.81303
   C       12.35595       -16.73737        18.70677
   C       11.07976       -17.01056        17.90333
   C        9.88621       -17.01342        18.80440
   C        8.93229       -17.92508        18.77735
   H        7.00915         6.71473        -2.11908
   H        7.90432         6.19372        -0.59951
   H        6.41956         4.82624        -3.90647
   H        6.70516         2.29129        -4.25258
   H        7.21124         0.00201        -4.08250
   H        8.04609        -2.32696        -3.36632
   H        9.33053        -3.50337        -1.44689
   H       10.15038        -1.58133         0.80705
   H       11.47011        -2.75390         2.70683
   H       12.40319        -5.06324         3.36463
   H       13.06923        -7.32441         3.43754
   H       13.49749        -9.81192         3.01146
   H       11.84517       -11.09919        -0.30014
   H       13.79080       -11.77603         1.96981
   H       14.57686       -12.24997        -0.31580
   H       13.11033       -13.17049        -0.66107
   H       15.15961       -13.84908         1.49805
   H       12.56438       -15.17467         0.57577
   H       13.42301       -13.98810         3.23265
   H       11.94628       -14.91270         2.94802
   H       11.55442       -12.44942         2.72757
   H       11.25421       -13.28489         1.20323
   H       15.88309       -16.34016         2.14138
   H       14.80152       -15.56322         3.30815
   H       14.97150       -18.57234         2.85164
   H       13.89358       -17.76396         3.98049
   H       15.64733       -17.67116         4.21020
   H       14.90670       -17.81533         0.69142
   H       13.34536       -15.95579        -1.15727
   H       15.65872       -17.88601        -1.55290
   H       14.98919       -16.82063        -2.79067
   H       13.98388       -19.11875        -2.90381
   H       12.77657       -17.87499        -2.57705
   H       14.06574       -19.73788        -0.53604
   H       12.39471       -19.79549        -1.10057
   H       11.97784       -17.54968        -0.08995
   H       12.91668       -19.85959         1.62137
   H       11.23650       -17.39861         2.26204
   H       10.88261       -18.38591         4.42506
   H       11.73258       -21.04603         3.17187
   H       11.12310       -24.14137         5.21509
   H       10.10705       -23.29273         8.44074
   H        9.76246       -21.24274         9.29665
   H       10.30619       -18.47811         8.10782
   H        9.33711       -19.42163        10.88102
   H       10.09107       -16.69585         9.72716
   H        8.81621       -15.88721        11.62303
   H       11.26721       -15.59247        11.75674
   H       11.42017       -17.12749        12.61441
   H        9.81857       -14.70881        13.55942
   H       10.38956       -17.45386        14.76850
   H        7.81780       -16.08425        13.92226
   H        7.91953       -17.61784        14.80039
   H        7.75902       -18.00201        12.34542
   H        9.30678       -18.57246        12.98310
   H        7.68070       -15.52696        16.13161
   H        8.63224       -15.09263        17.54087
   H        8.50149       -13.62604        14.86942
   H        9.84230       -13.36925        15.98536
   H        8.18772       -13.01637        16.48879
   H       10.94169       -14.94525        17.28832
   H       12.28363       -17.00273        15.47848
   H       13.32818       -14.66682        17.12346
   H       14.28669       -15.67406        16.03696
   H       14.47200       -16.45423        18.40969
   H       13.75196       -17.68528        17.37004
   H       12.25279       -15.77699        19.21818
   H       12.47380       -17.51000        19.46982
   H       11.15276       -17.98444        17.40892
   H        9.83636       -16.19169        19.50802
   H        8.96055       -18.75053        18.08595
   H        8.08234       -17.88455        19.43728
*
