# ORCA input file
# SCF done       -204.876695627965          0.013312359164
! CAM-B3LYP def2-SVP def2/J RIJCOSX Grid4 TightSCF
%maxcore 5000
%tddft
    Mode sTDDFT
    Ethresh 5.0
    maxcore 5000
end

%pal
  nprocs 6
  end
* xyz 0 1
   C       -9.73890        -3.12017         3.18910
   C       -9.62373        -4.25276         2.42170
   C      -10.22613        -5.48646         2.74245
   N      -10.70479        -6.51503         2.91646
   C       -8.91850        -4.38466         1.20740
   N       -8.37512        -4.60116         0.21692
   C      -10.45115        -3.05877         4.46115
   C      -10.29394        -1.76039         5.00016
   C      -10.86231        -1.37236         6.18865
   C      -11.64498        -2.30805         6.87180
   C      -11.80596        -3.60195         6.32245
   C      -11.21397        -3.99783         5.12840
   S      -12.83177        -4.58540         7.31862
   C      -13.03353        -3.28567         8.43778
   C      -12.36457        -2.16353         8.09092
   C       -9.48749        -0.94068         4.08050
   O       -9.09788         0.18823         4.31636
   C       -9.23182        -1.78784         2.89483
   C       -8.73757        -1.44684         1.65697
   C       -8.43570        -0.20602         1.05740
   C       -8.49898         1.04286         1.64080
   C       -8.39403         2.24092         0.95521
   C       -8.19762         2.31007        -0.49702
   C       -8.01042         1.21431        -1.26952
   S       -8.04529        -0.38707        -0.66662
   C       -8.29057         3.68985        -0.81570
   C       -8.56319         4.43169         0.34631
   C       -8.66485         5.81734         0.07854
   C       -8.47976         6.08586        -1.23789
   S       -8.17185         4.68172        -2.21072
   C       -8.60334         3.54273         1.46007
   C       -8.84567         3.81284         2.83731
   C       -9.68454         4.74148         3.34215
   C       -9.93271         4.77684         4.75333
   C       -9.01515         4.56426         5.76271
   C       -9.63041         4.43882         7.00939
   C      -11.03139         4.51182         6.93082
   S      -11.57868         4.85056         5.35339
   C      -11.56522         4.18526         8.20487
   C      -10.50150         3.97553         9.10032
   C       -9.24963         4.16084         8.38428
   C       -7.98629         4.07688         8.89287
   C       -6.83820         4.25672         8.09347
   N       -5.90273         4.41684         7.44856
   C       -7.74652         3.81661        10.25762
   N       -7.56169         3.59566        11.36817
   C      -10.92657         3.53385        10.35391
   C      -12.29377         3.34523        10.39594
   S      -13.07837         3.80104         8.88593
   C      -13.05112         2.71652        11.43532
   C      -14.13197         1.91483        11.15121
   C      -14.82728         1.16221        12.09293
   C      -14.60221         1.37477        13.52592
   C      -13.59213         2.12326        14.02763
   S      -12.43782         2.94084        13.05923
   C      -15.60356         0.60911        14.18589
   C      -16.36012        -0.08630        13.24370
   C      -17.35821        -0.88114        13.84418
   C      -17.33668        -0.76664        15.19933
   S      -16.10587         0.29207        15.79805
   C      -15.85260         0.20022        11.92043
   C      -16.26500        -0.49924        10.77545
   C      -15.63852        -0.55397         9.55357
   C      -16.08337        -1.39275         8.52795
   C      -15.57907        -1.53291         7.25102
   C      -14.70977        -0.71236         6.46147
   C      -14.43208         0.62762         6.64418
   C      -13.45756         1.34389         5.93181
   N      -12.64082         1.98804         5.44739
   C      -15.13103         1.45920         7.53296
   N      -15.68635         2.21397         8.20449
   C      -14.28895        -1.49019         5.29933
   C      -14.93889        -2.74834         5.33446
   C      -15.82504        -2.79584         6.51786
   O      -16.56729        -3.69630         6.84778
   C      -14.74282        -3.70505         4.36914
   C      -13.89611        -3.39107         3.30034
   C      -13.30654        -2.10753         3.24204
   C      -13.47708        -1.15091         4.23510
   S      -12.36848        -1.91172         1.79286
   C      -12.74023        -3.53284         1.30515
   C      -13.53770        -4.18762         2.17495
   H      -10.72539        -0.36959         6.56400
   H      -11.36756        -4.99708         4.75790
   H      -13.65145        -3.44222         9.30069
   H      -12.36577        -1.25919         8.67326
   H       -8.65354        -2.27116         0.95847
   H       -8.69248         1.07438         2.70338
   H       -7.84227         1.27452        -2.33340
   H       -8.85510         6.57242         0.81902
   H       -8.49956         7.04216        -1.72325
   H       -8.38866         3.11967         3.53163
   H      -10.28759         5.36440         2.69688
   H       -7.95601         4.50807         5.58827
   H      -10.27791         3.30041        11.17922
   H      -14.45762         1.88580        10.12097
   H      -13.42280         2.22960        15.08770
   H      -18.06173        -1.49753        13.31375
   H      -17.98164        -1.24698        15.90811
   H      -17.15058        -1.11244        10.89995
   H      -14.72610        -0.00086         9.39964
   H      -16.86225        -2.10795         8.77661
   H      -15.23955        -4.66096         4.42607
   H      -12.98708        -0.19417         4.15699
   H      -12.33019        -3.89523         0.38233
   H      -13.86544        -5.20227         2.04092
*
