# ORCA input file
# SCF done       -210.500581270494          0.000347550925
! CAM-B3LYP def2-SVP def2/J RIJCOSX Grid4 TightSCF
%maxcore 5000
%tddft
    Mode sTDDFT
    Ethresh 5.0
    maxcore 5000
end

%pal
  nprocs 6
  end
* xyz 0 1
   C       14.17638        -3.95737        12.88329
   C       14.92205        -3.58451        13.96665
   F       15.67020        -4.50353        14.60359
   C       14.94166        -2.26852        14.44889
   C       14.18820        -1.32053        13.81455
   C       13.40005        -1.64956        12.69244
   C       13.39267        -2.99420        12.21848
   C       12.60167        -3.35128        11.10179
   C       11.84620        -2.39408        10.48052
   C       11.86900        -1.04768        10.94927
   C       12.61952        -0.67727        12.02822
   C       10.99842        -0.21573        10.09535
   O       10.73960         0.95927        10.21573
   C       10.54889        -1.12465         9.00283
   C       10.91006        -2.47871         9.36357
   C       10.31541        -3.62076         8.90389
   C        9.16351        -3.63514         8.08458
   N        8.15520        -3.73876         7.54493
   C       10.71499        -4.91894         9.27604
   N       11.02718        -5.99859         9.51251
   C       10.05478        -0.61482         7.84062
   C        9.94861        -1.27221         6.59365
   C        9.27838        -0.80652         5.44187
   C        9.44312        -1.79544         4.44814
   C       10.22059        -2.81951         5.07524
   N       10.52419        -2.48466         6.32943
   O       10.57213        -3.95321         4.52126
   C       11.29313        -4.86341         5.33429
   C        8.62873        -1.40242         3.35671
   N        7.99843        -0.22811         3.64575
   C        8.37252         0.14581         4.86568
   O        7.95898         1.24105         5.45538
   C        7.04073         2.03694         4.72105
   C        8.42398        -2.13366         2.16601
   C        9.31395        -3.07126         1.57538
   C        8.61282        -3.66225         0.50440
   C        7.35544        -2.98058         0.46812
   N        7.26751        -2.08463         1.45353
   O        6.41301        -3.16082        -0.42500
   C        5.25971        -2.34631        -0.28329
   C        9.52338        -4.55162        -0.12773
   N       10.74308        -4.45893         0.46412
   C       10.64314        -3.59152         1.47409
   O       11.65796        -3.25018         2.23014
   C       12.89605        -3.87334         1.92599
   C        9.22810        -5.46643        -1.16253
   C        7.96699        -6.06433        -1.40878
   C        8.15472        -6.95755        -2.48560
   C        9.54050        -6.82490        -2.83470
   N       10.15224        -5.95144        -2.04021
   O       10.13587        -7.47502        -3.80474
   C       11.52370        -7.22241        -3.96621
   C        6.95069        -7.68042        -2.62816
   N        6.04456        -7.24851        -1.69877
   C        6.63181        -6.30900        -0.95748
   O        6.05553        -5.72361         0.06280
   C        4.74503        -6.15470         0.38855
   C        6.66796        -8.68701        -3.57976
   C        5.58486        -9.51212        -3.61003
   C        5.19979       -10.20796        -4.87072
   O        5.88400       -10.35664        -5.85659
   C        3.79473       -10.61339        -4.66899
   C        2.93422       -11.19663        -5.55447
   C        1.61389       -11.48709        -5.14440
   C        1.20618       -11.15891        -3.81820
   C       -0.11270       -11.44827        -3.41733
   C       -0.96959       -12.03842        -4.30401
   C       -0.58774       -12.37016        -5.61126
   C        0.68814       -12.09474        -6.01754
   F       -2.22930       -12.31676        -3.92234
   C        2.11974       -10.55968        -2.92019
   C        3.39661       -10.29707        -3.33693
   C        4.54906        -9.74935        -2.62773
   C        4.69726        -9.69192        -1.26981
   C        5.93750        -9.50393        -0.61811
   N        6.91278        -9.50134        -0.01187
   C        3.65054        -9.91625        -0.35460
   N        2.82711       -10.04448         0.43563
   H       14.18259        -4.98070        12.54178
   H       15.54923        -2.03346        15.30832
   H       14.18672        -0.30032        14.16769
   H       12.61706        -4.37437        10.76053
   H       12.61661         0.34601        12.37281
   H        9.78240         0.43487         7.84894
   H       11.60416        -5.67530         4.68048
   H       10.65160        -5.24927         6.12988
   H       12.15875        -4.37412         5.78455
   H        7.50054         2.38622         3.79491
   H        6.78426         2.87529         5.36480
   H        6.15358         1.45387         4.46897
   H        4.80053        -2.50610         0.69354
   H        4.58173        -2.63687        -1.08294
   H        5.52848        -1.29169        -0.36861
   H       13.21208        -3.61306         0.91397
   H       12.79963        -4.95843         1.98750
   H       13.61056        -3.50480         2.65892
   H       12.06364        -7.48933        -3.05641
   H       11.69371        -6.16438        -4.17231
   H       11.84794        -7.83670        -4.80310
   H        4.38647        -5.48047         1.16331
   H        4.76748        -7.17947         0.76645
   H        4.09826        -6.11615        -0.48983
   H        7.35330        -8.75566        -4.41745
   H        3.25760       -11.43628        -6.55640
   H       -0.43989       -11.21006        -2.41729
   H       -1.30743       -12.83492        -6.26629
   H        1.00562       -12.34148        -7.01948
   H        1.78509       -10.31755        -1.92380
*
