# ORCA input file
# SCF done       -221.173958530726          0.000592341469
! CAM-B3LYP def2-SVP def2/J RIJCOSX Grid4 TightSCF
%maxcore 5000
%tddft
    Mode sTDDFT
    Ethresh 5.0
    maxcore 5000
end

%pal
  nprocs 6
  end
* xyz 0 1
   C        1.39417         3.77759        -3.27633
   C        0.05549         3.99584        -3.10371
   F       -0.75602         4.01743        -4.17618
   C       -0.51645         4.20038        -1.84057
   C        0.29142         4.18039        -0.73796
   C        1.67853         3.95786        -0.85788
   C        2.24170         3.75554        -2.15183
   C        3.63239         3.53975        -2.29862
   C        4.42820         3.52214        -1.18589
   C        3.85607         3.70115         0.10658
   C        2.51982         3.92207         0.27641
   C        4.91246         3.57622         1.12589
   O        4.81742         3.71752         2.32385
   C        6.13655         3.17279         0.37571
   C        5.87219         3.35081        -1.03431
   C        6.79450         3.58507        -2.02202
   C        8.18162         3.65068        -1.79277
   N        9.31612         3.73050        -1.63314
   C        6.45297         3.88971        -3.35641
   N        6.22584         4.14862        -4.45088
   C        7.18329         2.66385         1.08678
   C        8.27177         1.87874         0.65956
   C        8.45222         1.17012        -0.52137
   C        9.65309         0.47464        -0.54111
   C       10.40359         0.63939         0.64428
   S        9.61896         1.64046         1.77318
   C       11.59878        -0.10256         0.52193
   C       11.61789        -0.72707        -0.73957
   C       10.39356        -0.38236        -1.44823
   C       10.01814        -0.77676        -2.69963
   C       10.81739        -1.63836        -3.47940
   N       11.46897        -2.35742        -4.09033
   C        8.79409        -0.35968        -3.26349
   N        7.78929        -0.01993        -3.69920
   C       12.75918        -1.49399        -0.95198
   C       13.61109        -1.47490         0.14303
   S       12.98535        -0.47599         1.44737
   C       14.84417        -2.16887         0.31412
   C       15.49589        -2.81722        -0.71116
   C       16.68018        -3.53485        -0.56437
   C       17.32291        -3.68496         0.74360
   C       16.87409        -3.11363         1.88215
   S       15.46436        -2.14378         1.96061
   C       18.45773        -4.50863         0.51365
   C       18.53580        -4.85286        -0.83846
   C       19.67981        -5.64136        -1.10300
   C       20.40443        -5.87474         0.02252
   S       19.74638        -5.15011         1.44751
   C       17.42663        -4.24381        -1.53302
   C       17.13458        -4.28392        -2.91304
   C       17.73292        -5.11143        -3.81459
   C       17.51222        -5.09321        -5.20895
   C       16.78552        -4.19550        -5.98486
   C       16.86776        -4.48805        -7.33998
   C       17.65011        -5.62839        -7.61565
   S       18.29091        -6.32594        -6.19422
   C       17.68392        -5.83051        -9.01077
   C       16.92992        -4.80691        -9.63004
   C       16.38961        -3.93808        -8.60193
   C       15.60211        -2.83883        -8.78380
   C       15.21560        -2.41894       -10.07409
   N       14.92248        -2.08407       -11.13091
   C       15.15694        -2.05083        -7.70207
   N       14.82065        -1.40378        -6.81714
   C       16.90549        -4.91457       -11.01259
   C       17.62225        -6.01341       -11.47101
   S       18.36086        -6.90745       -10.13963
   C       17.88311        -6.43936       -12.78605
   C       17.30180        -6.06180       -13.96237
   C       18.05511        -6.30677       -15.22427
   O       19.03289        -7.00821       -15.35492
   C       17.39096        -5.47224       -16.24144
   C       17.76414        -5.22961       -17.53164
   C       16.99105        -4.34554       -18.31706
   C       15.84383        -3.72333       -17.74368
   C       15.08699        -2.83176       -18.52826
   C       15.46549        -2.58590       -19.81886
   C       16.58794        -3.18991       -20.40147
   C       17.33469        -4.05716       -19.65367
   F       14.74415        -1.73425       -20.57030
   C       15.47428        -4.00277       -16.40663
   C       16.23282        -4.87086       -15.67010
   C       16.08625        -5.35765       -14.29910
   C       14.91024        -5.35917       -13.59239
   C       14.73382        -6.04576       -12.37669
   N       14.55349        -6.61283       -11.39451
   C       13.71811        -4.76324       -14.05359
   N       12.72247        -4.30144       -14.38812
   H        1.80027         3.62741        -4.26436
   H       -1.57921         4.36799        -1.76617
   H       -0.12562         4.33466         0.24588
   H        4.03108         3.37975        -3.28785
   H        2.10850         4.06438         1.26450
   H        7.11785         2.83452         2.15784
   H        7.71274         1.13023        -1.29997
   H       12.95148        -2.05506        -1.84736
   H       15.04971        -2.75723        -1.69289
   H       17.37580        -3.22920         2.82976
   H       19.97961        -6.01617        -2.06385
   H       21.31117        -6.44072         0.11010
   H       16.37566        -3.59910        -3.26480
   H       18.42694        -5.85927        -3.46336
   H       16.24211        -3.36629        -5.57149
   H       16.43793        -4.20482       -11.67006
   H       18.72719        -7.11325       -12.90414
   H       18.64087        -5.70302       -17.94760
   H       14.21471        -2.35117       -18.11368
   H       16.83800        -2.95733       -21.42445
   H       18.20431        -4.53452       -20.07980
   H       14.60759        -3.51094       -15.99418
*
