# ORCA input file
# SCF done       -312.813065657106          0.000969305669
! CAM-B3LYP def2-SVP def2/J RIJCOSX Grid4 TightSCF
%maxcore 5000
%tddft
    Mode sTDDFT
    Ethresh 5.0
    maxcore 5000
end

%pal
  nprocs 6
  end
* xyz 0 1
   C       -6.19860        -0.89878         5.15904
   C       -6.17403        -0.73659         6.52001
   C       -5.90893        -1.77915         7.43469
   N       -5.70042        -2.57433         8.23608
   C       -6.38786         0.45913         7.23985
   N       -6.53954         1.36943         7.92407
   C       -5.93864        -2.15941         4.47311
   C       -6.00516        -1.93644         3.07817
   C       -5.79888        -2.93099         2.15302
   C       -5.51337        -4.21429         2.62829
   C       -5.45077        -4.43099         4.02571
   C       -5.65884        -3.42389         4.95957
   S       -5.08523        -6.08817         4.39928
   C       -5.02124        -6.46161         2.69694
   C       -5.26161        -5.40191         1.88872
  Br       -4.64314        -8.21425         2.14789
   C       -6.31582        -0.51920         2.81532
   O       -6.41645        -0.02415         1.71129
   C       -6.46047         0.11780         4.14614
   C       -6.79832         1.40769         4.45055
   C       -7.09971         2.52241         3.63711
   C       -7.14752         2.69328         2.27498
   C       -7.51245         3.99162         1.87488
   C       -7.60983         4.48619         0.55378
   C       -7.41708         3.64701        -0.60860
   C       -6.80144         3.97865        -1.78430
   C       -6.83017         2.93086        -2.72667
   C       -7.47421         1.80429        -2.29872
   S       -8.05349         2.02692        -0.68697
   C       -7.69068         0.52586        -3.02100
  Cl       -6.11094         3.07643        -4.28380
   C       -7.91356         5.83503         0.42393
   C       -8.13315         6.70091         1.52685
   C       -8.02970         6.21100         2.84595
   C       -7.73067         4.85786         2.98153
   S       -7.50966         4.01556         4.48274
   C       -8.19913         7.05918         4.00793
   C       -8.76960         6.73911         5.20725
   C       -8.70993         7.79479         6.14239
   C       -8.08994         8.92104         5.68477
   S       -7.56780         8.68558         4.05241
   C       -7.83949        10.20035         6.39527
  Cl       -9.37237         7.66014         7.72519
   C       -8.49485         8.00153         1.10643
   C       -8.54124         8.14734        -0.25161
   S       -8.13862         6.66849        -1.08840
   C       -8.85078         9.32818        -0.98953
   C       -9.12640        10.57187        -0.49723
   C       -9.36841        11.54068        -1.50050
   C       -9.71373        12.89851        -1.33383
   C       -9.79158        13.53418        -0.03487
   C      -10.66344        14.50591         0.37099
   C      -10.41443        14.95029         1.68605
   C       -9.35325        14.34561         2.29613
   S       -8.64433        13.18352         1.23158
   C       -8.82947        14.56949         3.66794
  Cl      -11.36619        16.15978         2.45536
   C       -9.96187        13.61946        -2.49904
   C       -9.86823        13.05872        -3.79732
   C       -9.53497        11.69977        -3.96461
   C       -9.28297        10.98120        -2.80071
   S       -8.88315         9.28918        -2.73632
   C       -9.47924        11.06371        -5.26475
   C       -8.61562        10.09560        -5.69287
   C       -8.89534         9.65300        -7.00355
   C       -9.96948        10.25874        -7.58817
   S      -10.65909        11.41423        -6.50166
   C      -10.55009        10.02650        -8.93494
  Cl       -7.95108         8.44815        -7.79104
   C      -10.09095        14.02381        -4.80615
   C      -10.36713        15.27060        -4.32358
   S      -10.36190        15.31409        -2.57685
   C      -10.65194        16.43247        -5.10152
   C      -10.53514        16.54703        -6.45771
   C      -10.91758        17.81202        -6.95653
   C      -10.93690        18.24034        -8.29908
   C      -10.54559        17.38804        -9.40416
   C       -9.83103        17.74491       -10.51184
   C       -9.65897        16.67981       -11.42234
   C      -10.23937        15.50732       -11.03445
   S      -11.01530        15.71160        -9.50009
   C      -10.24822        14.19658       -11.73153
  Cl       -8.79084        16.87041       -12.89640
   C      -11.34875        19.54831        -8.51949
   C      -11.74311        20.43491        -7.48495
   C      -11.73985        19.99886        -6.14208
   C      -11.31027        18.69415        -5.91819
   S      -11.22413        17.90883        -4.36500
   C      -12.18692        20.83380        -5.04790
   C      -11.68415        20.89754        -3.77860
   C      -12.41101        21.77411        -2.94599
   C      -13.47882        22.37395        -3.55003
   S      -13.58671        21.86409        -5.19870
   C      -14.44395        23.34609        -2.97854
  Cl      -11.98371        22.04890        -1.30179
   C      -12.08613        21.70782        -7.99199
   C      -11.96643        21.81830        -9.35203
   S      -11.47889        20.29912       -10.08147
   C      -12.25518        22.97379       -10.12646
   C      -11.85167        23.26869       -11.38810
   C      -10.84327        22.67589       -12.24532
   C       -9.65070        22.14402       -11.83347
   C       -8.67183        21.63709       -12.71157
   N       -7.85562        21.19192       -13.38452
   C       -9.23396        22.14047       -10.48462
   N       -8.82812        22.17423        -9.41152
   C      -11.18935        23.02013       -13.61827
   C      -12.20745        24.00783       -13.59391
   C      -12.60048        24.27306       -12.19480
   O      -13.39494        25.08656       -11.78575
   C      -12.70718        24.57527       -14.74119
   C      -12.18827        24.13951       -15.96495
   C      -11.18394        23.14126       -15.97723
   C      -10.66996        22.57365       -14.81796
   S      -10.69637        22.74496       -17.59647
   C      -11.82720        23.91354       -18.22749
   C      -12.53641        24.56570       -17.27608
  Br      -11.96538        24.15903       -20.08110
   H       -5.85578        -2.72316         1.09605
   H       -5.59947        -3.64522         6.01154
   H       -5.26115        -5.45400         0.81532
   H       -6.86192         1.64102         5.50675
   H       -6.90810         1.89792         1.59526
   H       -6.30611         4.91417        -1.96593
   H       -7.19825         0.56315        -3.98948
   H       -8.75462         0.34449        -3.17220
   H       -7.28708        -0.30699        -2.44670
   H       -9.25136         5.80262         5.41739
   H       -8.47666        10.26157         7.27426
   H       -8.04124        11.04748         5.74245
   H       -6.79927        10.26274         6.71698
   H       -8.73026         8.80159         1.78131
   H       -9.16276        10.78129         0.55446
   H      -11.47961        14.87252        -0.22288
   H       -8.80958        15.63541         3.88901
   H       -7.82592        14.16345         3.76446
   H       -9.47375        14.08772         4.40490
   H       -7.78406         9.73019        -5.11996
   H       -9.79997         9.58666        -9.58827
   H      -10.90464        10.96067        -9.36534
   H      -11.39593         9.34040        -8.87337
   H      -10.04500        13.80678        -5.85565
   H      -10.17389        15.75031        -7.07861
   H       -9.39680        18.71577       -10.66324
   H       -9.84341        14.31551       -12.73327
   H      -11.26118        13.80266       -11.79864
   H       -9.63869        13.47123       -11.19187
   H      -10.80595        20.37470        -3.44896
   H      -14.42398        23.28783        -1.89286
   H      -15.45196        23.14028        -3.33274
   H      -14.18341        24.36327        -3.27401
   H      -12.36542        22.54308        -7.37661
   H      -12.95049        23.67741        -9.67918
   H      -13.47386        25.33279       -14.69725
   H       -9.90897        21.81245       -14.87087
   H      -13.27518        25.31682       -17.48799
*
