# ORCA input file
# SCF done       -239.971911978815          0.000514513920
! CAM-B3LYP def2-SVP def2/J RIJCOSX Grid4 TightSCF
%maxcore 5000
%tddft
    Mode sTDDFT
    Ethresh 5.0
    maxcore 5000
end

%pal
  nprocs 6
  end
* xyz 0 1
   C       13.92163        -8.65944        10.38133
   C       12.83624        -7.94140        10.73438
   C       12.65879        -6.77267         9.93751
   C       11.62502        -5.82039        10.00028
   C       10.56582        -5.86950        10.98944
   C        9.24410        -5.57916        10.81021
   C        8.49612        -5.67479        12.00401
   C        9.22700        -6.01980        13.10276
   S       10.88516        -6.24916        12.66043
   C        8.77281        -6.20713        14.50371
  Cl        6.80123        -5.37571        12.05051
   C       11.66766        -4.79479         9.06039
   C       12.68223        -4.67882         8.07967
   C       13.70785        -5.64070         8.00787
   C       13.67185        -6.65839         8.95544
   S       14.80445        -7.97798         9.06193
   C       14.73392        -5.56035         6.98778
   C       14.57776        -5.26824         5.66335
   C       15.80122        -5.26644         4.95876
   C       16.89455        -5.54554         5.72565
   S       16.41296        -5.83298         7.36391
   C       18.32078        -5.62391         5.32088
  Cl       15.88674        -4.93427         3.26985
   C       12.53468        -3.50365         7.30297
   C       11.45331        -2.74815         7.65272
   S       10.54705        -3.46192         8.97184
   C       11.02523        -1.52271         7.07059
   C        9.98828        -0.70941         7.47934
   C        9.85568         0.41749         6.66419
   C       10.79842         0.45141         5.62578
   S       11.85132        -0.89241         5.65441
   C       10.58161         1.62207         4.85340
   C        9.50168         2.32982         5.40752
   C        9.01718         1.60434         6.57060
   C        8.00595         1.96673         7.40997
   C        7.62642         1.17272         8.51330
   N        7.31107         0.53446         9.41225
   C        7.28197         3.16926         7.25980
   N        6.69226         4.14881         7.17530
   C        9.19137         3.49390         4.70442
   C       10.02104         3.67689         3.61672
   S       11.22074         2.39270         3.47692
   C       10.07436         4.75095         2.68149
   S       11.61331         5.11276         1.96015
   C        9.08888         5.62449         2.23873
   C        7.64680         5.47512         2.52491
   O        7.16342         4.53647         3.13414
   C        6.85091         6.54958         1.95785
   C        5.49712         6.78056         2.06867
   N        5.18922         7.89214         1.35927
   C        3.87995         8.49077         1.28846
   C        3.63348         9.41472         2.47929
   C        6.31132         8.39297         0.79231
   C        7.37560         7.58682         1.13637
   C        8.76973         7.67954         0.74334
   O        9.20167         8.53560        -0.00880
   C        9.60133         6.61513         1.34980
   C       10.95619         6.47101         1.09164
   C       11.78169         7.26693         0.24792
   C       13.02520         6.88797        -0.11237
   C       13.93595         7.60324        -0.96975
   C       13.86518         8.97440        -1.26117
   F       12.89800         9.72568        -0.72495
   C       14.79635         9.59525        -2.07689
   F       14.65186        10.89525        -2.35125
   C       15.84175         8.88342        -2.67353
   C       15.90005         7.51167        -2.41338
   C       14.99550         6.90015        -1.56776
   F       15.11868         5.58572        -1.32798
   F       16.88541         6.79141        -2.96770
   C       16.80993         9.51236        -3.55494
   C       17.48298        10.63891        -3.24580
   C       18.40240        11.38471        -4.09596
   C       18.51346        11.26725        -5.45348
   C       19.39375        12.03738        -6.24414
   N       20.09231        12.62898        -6.93601
   C       17.74605        10.38778        -6.24829
   N       17.14386         9.71102        -6.95279
   C       19.11042        12.33503        -3.25177
   C       18.60000        12.24300        -1.92405
   C       17.56107        11.20490        -1.85991
   O       16.96558        10.81976        -0.88069
   C       19.07746        13.02716        -0.91267
   C       20.10502        13.95625        -1.18713
   C       20.62683        14.04858        -2.51062
   C       20.11422        13.22424        -3.53712
   C       21.65892        14.97355        -2.77075
   C       22.15164        15.77066        -1.77389
   C       21.63608        15.68022        -0.47192
   C       20.63436        14.79311        -0.18485
   H       14.27584        -9.57281        10.81754
   H       12.17124        -8.22892        11.52690
   H        8.80130        -5.33886         9.86169
   H        7.72195        -5.94066        14.58469
   H        9.35224        -5.58225        15.18217
   H        8.89826        -7.24476        14.81327
   H       13.62707        -5.10288         5.19108
   H       18.42258        -5.33603         4.27751
   H       18.69871        -6.63848         5.44529
   H       18.93069        -4.96194         5.93407
   H       13.22310        -3.20820         6.53214
   H        9.37254        -0.93992         8.33009
   H        8.40367         4.17468         4.96449
   H        4.75679         6.22029         2.60425
   H        3.13256         7.69297         1.27412
   H        3.80767         9.05463         0.35516
   H        3.70170         8.85851         3.41098
   H        2.64337         9.85564         2.40773
   H        4.37128        10.21322         2.49831
   H        6.29892         9.27357         0.18123
   H       11.32422         8.17656        -0.11429
   H       13.39049         5.92512         0.22651
   H       16.99909         8.99188        -4.48535
   H       18.67328        12.93889         0.08480
   H       20.53452        13.31117        -4.52660
   H       22.05134        15.04050        -3.77478
   H       22.94187        16.47595        -1.98291
   H       22.03730        16.31680         0.30234
   H       20.23383        14.71886         0.81549
*
