# ORCA input file
# SCF done       -224.928726512104          0.000760807942
! CAM-B3LYP def2-SVP def2/J RIJCOSX Grid4 TightSCF
%maxcore 5000
%tddft
    Mode sTDDFT
    Ethresh 5.0
    maxcore 5000
end

%pal
  nprocs 6
  end
* xyz 0 1
   C       -3.37722        -1.61216         0.17173
   C       -2.31163        -2.08900        -0.50103
   C       -1.13110        -1.31420        -0.29743
   C        0.14558        -1.50659        -0.85368
   C        0.44098        -2.56567        -1.79945
   C        1.56685        -3.33424        -1.86591
   C        1.54757        -4.23988        -2.94902
   C        0.42830        -4.17153        -3.72489
   S       -0.64530        -2.96292        -3.10416
   C        0.07880        -4.96347        -4.93131
  Cl        2.84149        -5.33637        -3.24999
   C        1.13483        -0.60913        -0.46143
   C        0.90511         0.46862         0.42644
   C       -0.37848         0.67591         0.96406
   C       -1.36124        -0.24041         0.59396
   S       -3.02682        -0.20233         1.10861
   C       -0.69433         1.79177         1.83357
   C       -1.52447         1.80225         2.91721
   C       -1.65790         3.08446         3.49302
   C       -0.95057         4.06535         2.86288
   S       -0.08177         3.39587         1.52326
   C       -0.87150         5.51279         3.18514
  Cl       -2.63866         3.36977         4.88001
   C        2.08789         1.21941         0.65689
   C        3.17013         0.78154        -0.04175
   S        2.78072        -0.61610        -1.02478
   C        4.51446         1.31690        -0.04486
   C        4.95257         2.14340         0.99936
   C        6.23113         2.64326         0.96854
   C        7.09456         2.34512        -0.09931
   C        6.67165         1.52199        -1.13187
   C        5.38959         1.01145        -1.09171
   C        8.35902         3.01104         0.13112
   C        8.28460         3.70408         1.35158
   C        6.92053         3.53022         1.97928
   C        7.01609         2.84316         3.35402
   C        7.72355         1.49484         3.29254
   C        6.19531         4.88076         2.12660
   C        6.05509         5.62334         0.80330
   C        9.35908         4.41818         1.82080
   C       10.54061         4.47036         1.06519
   C       10.58650         3.79707        -0.16381
   C        9.51668         3.06159        -0.63111
   C       11.71017         5.19666         1.49979
   C       11.97229         5.60204         2.75877
   C       13.14301         6.31113         3.15616
   N       13.41258         6.52884         4.49240
   C       14.58438         7.21127         4.59484
   C       15.49143         7.76034         5.49296
   C       16.50849         8.33382         4.71614
   N       16.22080         8.13848         3.37799
   C       15.05694         7.44754         3.27904
   C       14.15642         6.88004         2.38094
   C       17.68358         9.01619         5.10857
   C       18.09855         9.17795         6.39247
   C       19.28239         9.84940         6.77922
   C       20.20104        10.54142         6.00026
   C       21.25301        11.05152         6.75328
   C       21.15219        10.75044         8.12284
   S       19.74444         9.84499         8.47725
   C       22.27358        11.29702         8.78735
   C       23.08523        11.95218         7.84121
   C       22.47039        11.82518         6.53609
   C       22.92574        12.32353         5.34860
   C       22.22994        12.12675         4.13915
   N       21.66307        11.96464         3.15464
   C       24.11959        13.06710         5.25411
   N       25.08807        13.67570         5.16927
   C       24.23093        12.51630         8.40694
   C       24.30149        12.29476         9.76722
   S       22.92079        11.37549        10.36605
   C       25.31862        12.70176        10.66720
   C       25.39462        12.44555        12.02360
   C       26.54505        12.99250        12.59351
   C       27.34700        13.66932        11.66667
   S       26.69027        13.63521        10.08838
   C       28.48668        14.18269        12.34767
   C       28.39891        13.82701        13.69946
   C       27.18185        13.06838        13.90445
   C       26.72084        12.53057        15.07141
   C       25.51395        11.80490        15.13963
   N       24.53300        11.21349        15.20162
   C       27.42029        12.66297        16.28860
   N       27.98372        12.76550        17.28252
   C       29.49390        14.29715        14.45125
   C       30.37142        14.98559        13.67213
   S       29.89557        15.08317        12.00619
   H       -4.37441        -2.00595         0.19246
   H       -2.34930        -2.96606        -1.11957
   H        2.37125        -3.28937        -1.15578
   H        0.86299        -5.68943        -5.13115
   H       -0.03093        -4.31375        -5.79931
   H       -0.86378        -5.49011        -4.78574
   H       -2.00247         0.92905         3.31981
   H       -1.34635         5.69994         4.14513
   H       -1.37967         6.10370         2.42265
   H        0.16561         5.84177         3.22800
   H        2.12093         2.06767         1.31410
   H        4.29241         2.36508         1.82373
   H        7.33018         1.28088        -1.95256
   H        5.04257         0.36835        -1.88780
   H        6.00678         2.70504         3.74757
   H        7.55309         3.50388         4.03828
   H        7.19206         0.81296         2.63261
   H        7.76841         1.04951         4.28387
   H        8.73892         1.61038         2.91964
   H        6.75094         5.50128         2.83321
   H        5.20385         4.70069         2.54792
   H        7.03283         5.82786         0.37264
   H        5.54177         6.56972         0.95757
   H        5.48294         5.03321         0.09088
   H        9.29112         4.95762         2.75352
   H       11.49419         3.84761        -0.74837
   H        9.57936         2.54085        -1.57496
   H       12.44876         5.38856         0.73353
   H       11.27990         5.36465         3.55646
   H       12.83952         6.19924         5.24983
   H       15.44242         7.76270         6.56276
   H       16.80192         8.45202         2.61982
   H       14.20531         6.87971         1.31132
   H       18.28872         9.41627         4.30585
   H       17.50986         8.75563         7.19386
   H       20.09577        10.66627         4.93881
   H       24.98517        13.05953         7.86606
   H       24.64383        11.88668        12.55293
   H       29.62851        14.13786        15.50546
   H       31.28802        15.45428        13.96910
*
