# ORCA input file
# SCF done       -229.660038350812          0.000980069746
! CAM-B3LYP def2-SVP def2/J RIJCOSX Grid4 TightSCF
%maxcore 5000
%tddft
    Mode sTDDFT
    Ethresh 5.0
    maxcore 5000
end

%pal
  nprocs 6
  end
* xyz 0 1
   C        2.66336        -0.85533        -9.16153
   C        3.35588         0.27439        -9.40998
   C        4.04593         0.76751        -8.26404
   C        4.85114         1.91579        -8.15603
   C        5.04832         2.84658        -9.25051
   C        6.19360         3.50431        -9.59482
   C        6.00986         4.39435       -10.67548
   C        4.73620         4.43969       -11.16094
   S        3.72760         3.34871       -10.27232
   C        4.18999         5.25736       -12.27352
  Cl        7.30069         5.33876       -11.31391
   C        5.44527         2.14147        -6.91809
   C        5.24511         1.30794        -5.79198
   C        4.40943         0.17870        -5.89186
   C        3.85296        -0.07310        -7.14172
   S        2.80026        -1.40700        -7.52938
   C        4.14058        -0.65242        -4.73576
   C        3.87005        -0.24983        -3.45960
   C        3.66544        -1.33449        -2.57941
   C        3.78100        -2.56331        -3.16010
   S        4.14275        -2.39116        -4.84482
   C        3.63397        -3.90460        -2.54065
  Cl        3.30136        -1.10493        -0.91083
   C        5.96729         1.76399        -4.66436
   C        6.67464         2.91529        -4.87761
   S        6.48359         3.48216        -6.52676
   C        7.45228         3.60513        -3.90383
   C        8.28582         4.71037        -4.00941
   C        8.56820         5.48217        -5.25913
   C        7.53152         6.58861        -5.46327
   C        8.83819         5.08130        -2.77970
   C        8.45784         4.28886        -1.71396
   S        7.38554         3.02986        -2.25732
   C        8.79256         4.39110        -0.34376
   C        9.55231         5.38602         0.18807
   C        9.85720         5.52854         1.55097
   C       10.58167         6.58392         2.11825
   C       10.69254         6.48756         3.54625
   N       11.34046         7.40425         4.25824
   C       11.87957         8.40846         3.59717
   C       12.60073         9.42847         4.38942
   O       12.69054         9.38172         5.60077
   C       13.20654        10.51299         3.59970
   C       13.11060        10.60412         2.26877
   C       12.38833         9.63177         1.43273
   O       12.30842         9.75148         0.22606
   C       11.77229         8.50421         2.17141
   N       11.13218         7.60348         1.45556
   C       10.06345         5.35600         4.08900
   S        9.34714         4.42792         2.80523
   C       10.02913         5.06883         5.46334
   C        9.47733         3.98906         6.15957
   C        8.80701         2.81573         5.52096
   C        9.83709         1.79838         5.02492
   C        9.65749         4.10484         7.53402
   C       10.32416         5.25555         7.92358
   S       10.76067         6.22346         6.54825
   C       10.65537         5.71784         9.22393
   C       10.46227         5.02714        10.37199
   C       10.77090         5.52702        11.66963
   C       11.13947         6.78802        12.05019
   C       11.35552         6.92765        13.44153
   C       11.68977         8.09770        14.15236
   C       11.95867         9.33926        13.45585
   C       12.69427         9.52166        12.32030
   C       12.73411        10.87130        11.90706
   C       12.03228        11.72555        12.70688
   S       11.30864        10.85545        14.01729
   C       11.85118        13.19254        12.56775
  Cl       13.59786        11.37632        10.50452
   C       11.74760         7.98821        15.53733
   C       11.52100         6.77719        16.23408
   C       11.20359         5.60419        15.52503
   C       11.12894         5.71575        14.13985
   S       10.67858         4.44023        13.04394
   C       10.94738         4.33430        16.17701
   C       11.33599         3.09308        15.76344
   C       10.86755         2.06386        16.60900
   C       10.11283         2.49390        17.66015
   S        9.97790         4.21987        17.62101
   C        9.46397         1.69678        18.73170
  Cl       11.23042         0.40478        16.32144
   C       11.70508         6.94179        17.63810
   C       12.04066         8.20214        17.98079
   S       12.16072         9.27835        16.63485
   H        2.06695        -1.42572        -9.84627
   H        3.39045         0.74520       -10.37460
   H        7.14702         3.34294        -9.12771
   H        4.98925         5.83886       -12.72613
   H        3.42116         5.93804       -11.90856
   H        3.73970         4.62028       -13.03389
   H        3.77500         0.77703        -3.15876
   H        3.43873        -3.79773        -1.47651
   H        4.54067        -4.49253        -2.67815
   H        2.80890        -4.44916        -2.99890
   H        5.98610         1.24546        -3.72313
   H        8.57130         4.81921        -6.12512
   H        9.55903         5.93227        -5.17260
   H        6.53370         6.16642        -5.55273
   H        7.75261         7.14486        -6.37021
   H        7.54239         7.27602        -4.62046
   H        9.50779         5.91573        -2.67418
   H        8.38858         3.63054         0.31275
   H        9.96242         6.16654        -0.43704
   H       13.74535        11.25304         4.17620
   H       13.56874        11.42086         1.72701
   H        8.18752         3.14512         4.68414
   H        8.15750         2.33853         6.25692
   H       10.49990         2.24874         4.29038
   H        9.33586         0.95156         4.56374
   H       10.43899         1.43818         5.85581
   H        9.29502         3.37107         8.23159
   H       11.10193         6.70143         9.26326
   H       10.06119         4.02419        10.33671
   H       11.21184         7.60887        11.36227
   H       13.22654         8.73674        11.81540
   H       12.37748        13.54304        11.68356
   H       12.24140        13.71171        13.44247
   H       10.79474        13.44177        12.47368
   H       11.96030         2.90982        14.90900
   H        9.67791         0.64144        18.58212
   H        8.38442         1.84434        18.72017
   H        9.83277         1.99774        19.71185
   H       11.59871         6.14574        18.35092
   H       12.23360         8.58669        18.96316
*
