# ORCA input file
# SCF done       -193.967007864545          0.000606976107
! CAM-B3LYP def2-SVP def2/J RIJCOSX Grid4 TightSCF
%maxcore 5000
%tddft
    Mode sTDDFT
    Ethresh 5.0
    maxcore 5000
end

%pal
  nprocs 6
  end
* xyz 0 1
   C        1.54734         2.69322         1.25804
   C        1.57891         1.51693         1.96942
   C        2.71332         0.68686         2.07271
   N        3.59674        -0.03573         2.20277
   C        0.50528         0.95999         2.69099
   N       -0.31925         0.44087         3.30207
   C        2.67361         3.25409         0.51489
   C        2.24727         4.46307        -0.10638
   C        3.08730         5.22137        -0.86795
   C        4.42501         4.79931        -1.04445
   C        4.86102         3.59312        -0.42576
   C        3.96371         2.82645         0.35512
   C        6.19749         3.18374        -0.60377
   C        7.06430         3.92946        -1.35625
   C        6.63377         5.11685        -1.96531
   C        5.34152         5.54233        -1.81310
   C        0.83586         4.70133         0.23189
   O        0.14857         5.64120        -0.13900
   C        0.42889         3.59476         1.09839
   C       -0.80745         3.44741         1.69256
   C       -1.93956         4.25392         1.64844
   C       -3.12836         3.96667         2.38120
   C       -4.12979         4.95921         2.22001
   C       -5.36179         4.82690         2.87838
   C       -5.58337         3.73303         3.67449
   C       -4.59520         2.75244         3.83398
   C       -3.38153         2.85781         3.20173
   C       -3.71768         5.99639         1.34881
   S       -2.11703         5.73575         0.75404
   C       -4.46532         7.13657         1.00035
   C       -4.08092         8.05416         0.06962
   C       -4.80212         9.22231        -0.24834
   C       -4.50693        10.13196        -1.25634
   C       -5.40774        11.19011        -1.29408
   C       -6.39920        11.10400        -0.29485
   S       -6.23024         9.70459         0.66835
   C       -7.24330        12.23157        -0.39520
   C       -6.79973        13.03021        -1.46787
   C       -5.63812        12.39769        -2.07135
   C       -4.92695        12.84053        -3.14819
   C       -3.80822        12.14445        -3.65169
   N       -2.89807        11.58310        -4.06541
   C       -5.27620        14.02210        -3.83479
   N       -5.57036        14.97835        -4.39567
   C       -7.55383        14.18706        -1.63792
   C       -8.57413        14.29041        -0.70352
   S       -8.58551        12.91807         0.40729
   C       -9.50793        15.33636        -0.52181
   C       -9.96442        16.29985        -1.44545
   C      -10.85547        17.24006        -0.84865
   C      -11.40044        18.27519        -1.62666
   C      -11.08674        18.35464        -2.95663
   C      -10.24520        17.40328        -3.55590
   C       -9.69217        16.38809        -2.82340
   C      -11.09092        16.99052         0.52120
   S      -10.21833        15.58049         1.03637
   C      -11.87379        17.73689         1.40905
   C      -12.01306        17.46425         2.74393
   C      -12.77769        18.28122         3.58910
   C      -12.91027        18.10604         4.94486
   C      -13.65964        18.94372         5.85442
   C      -14.46004        20.01272         5.53004
   C      -15.17044        20.78373         6.47222
   N      -15.77208        21.45590         7.18335
   C      -14.70417        20.49278         4.22813
   N      -14.95944        20.94200         3.20138
   C      -13.43219        18.44596         7.20857
   C      -12.59390        17.29756         7.13464
   C      -12.25007        17.03323         5.72560
   O      -11.56029        16.12252         5.31042
   C      -12.20449        16.61428         8.24949
   C      -12.63837        17.06058         9.51828
   C      -13.47258        18.21180         9.60212
   C      -13.86439        18.89562         8.42758
   C      -13.89355        18.65373        10.87263
   C      -13.50991        17.99163        12.00714
   C      -12.68951        16.85709        11.92322
   C      -12.26354        16.40122        10.70504
   H        2.73858         6.13403        -1.32815
   H        4.32725         1.91898         0.81008
   H        6.52444         2.26833        -0.13260
   H        8.08685         3.60758        -1.48551
   H        7.33040         5.69339        -2.55552
   H        5.00420         6.45635        -2.27984
   H       -0.92589         2.57280         2.31676
   H       -6.12586         5.57859         2.75432
   H       -6.52774         3.61964         4.18498
   H       -4.79503         1.89977         4.46471
   H       -2.63849         2.08735         3.33827
   H       -5.40827         7.28306         1.51234
   H       -3.16310         7.89711        -0.48174
   H       -3.67069        10.00593        -1.91985
   H       -7.33941        14.94918        -2.36273
   H      -12.06640        18.99409        -1.17615
   H      -11.50126        19.14647        -3.56156
   H      -10.03878        17.47417        -4.61273
   H       -9.07314        15.64915        -3.30432
   H      -12.38460        18.59961         1.00010
   H      -11.50834        16.60952         3.17192
   H      -13.27672        19.12269         3.12560
   H      -11.56892        15.74513         8.16511
   H      -14.49537        19.76436         8.52695
   H      -14.52556        19.52775        10.93206
   H      -13.83660        18.33907        12.97592
   H      -12.39619        16.34638        12.82837
   H      -11.63110        15.52819        10.63403
*
