# ORCA input file
# SCF done       -229.158522673495          0.000634566741
! CAM-B3LYP def2-SVP def2/J RIJCOSX Grid4 TightSCF
%maxcore 5000
%tddft
    Mode sTDDFT
    Ethresh 5.0
    maxcore 5000
end

%pal
  nprocs 6
  end
* xyz 0 1
   C        1.66529        -0.26742        -2.29574
   C        0.41899        -0.03731        -1.77491
   C       -0.41287        -1.04836        -1.25708
   N       -1.11726        -1.83846        -0.81247
   C       -0.18721         1.23548        -1.79642
   N       -0.71853         2.25142        -1.85748
   C        2.24199        -1.57401        -2.58530
   C        3.25676        -1.40827        -3.57360
   C        3.95037        -2.47350        -4.07020
   C        3.66491        -3.76972        -3.58396
   C        2.66309        -3.93821        -2.58485
   C        1.95255        -2.81815        -2.09534
   C        2.39601        -5.23562        -2.10292
   C        3.08143        -6.31696        -2.58527
   C        4.06611        -6.15066        -3.57033
   C        4.35104        -4.90461        -4.05904
   C        3.39769         0.02547        -3.89474
   O        4.11739         0.53955        -4.72118
   C        2.51024         0.72470        -2.92665
   C        2.66728         2.05266        -2.68631
   C        2.28566         2.78924        -1.53738
   S        2.11014         2.02682         0.02955
   C        1.83692         3.54485         0.77111
   C        1.85965         4.58290        -0.11220
   C        2.12970         4.16060        -1.43433
   C        2.14371         5.10111        -2.59249
   C        2.28890         6.56319        -2.15378
   C        1.31561         6.83144        -0.99421
   C        1.68954         6.02358         0.24340
   C        3.71353         6.92860        -1.79739
   C        4.61448         6.04188        -1.37410
   C        4.09103         8.32774        -1.93147
   C        5.33551         8.82261        -2.16702
   C        5.40500        10.24000        -2.19944
   C        6.53677        11.04942        -2.41580
   C        7.83212        10.50432        -2.76906
   C        9.06353        10.92729        -2.35967
   C       10.11716        10.20510        -2.96099
   C        9.71595         9.24044        -3.83751
   S        7.98720         9.20505        -3.92303
   C       10.54491         8.31420        -4.64960
  Cl       11.77081        10.52917        -2.60507
   C        6.34846        12.42194        -2.28659
   C        5.09299        13.01121        -2.00692
   C        3.94485        12.20768        -1.87048
   C        4.14570        10.83179        -1.94615
   S        2.91575         9.61568        -1.76121
   C        2.62229        12.76929        -1.68470
   C        1.59650        12.28668        -0.92435
   C        0.42189        13.06336        -1.02985
   C        0.52172        14.13393        -1.86856
   S        2.11279        14.19885        -2.54887
   C       -0.50669        15.14446        -2.22218
  Cl       -1.01305        12.67564        -0.15882
   C        5.18460        14.41920        -1.87211
   C        6.43633        14.91798        -2.08317
   S        7.58022        13.63988        -2.45894
   C        6.91249        16.26300        -1.99196
   S        8.62122        16.56260        -2.17460
   C        8.39621        18.23463        -1.87692
   C        7.09209        18.55830        -1.65691
   C        6.23039        17.43522        -1.73396
   C        4.75428        17.54976        -1.51445
   C        4.26399        18.99985        -1.47269
   C        5.24056        19.86331        -0.66003
   C        6.59443        19.93621        -1.36037
   C        4.07178        19.62729        -2.83476
   C        4.64077        19.18754        -3.95605
   C        3.16114        20.75732        -2.83892
   C        3.36845        21.95489        -3.43039
   C        2.43011        23.07076        -3.45239
   C        1.07980        22.98858        -3.24830
   C        0.20463        24.09416        -3.30469
   N       -0.55139        24.95732        -3.33009
   C        0.37844        21.79175        -2.98722
   N       -0.25517        20.85533        -2.78706
   C        3.17388        24.26908        -3.80936
   C        4.51856        23.89989        -4.10076
   C        4.68571        22.44625        -3.93182
   O        5.70265        21.81183        -4.10368
   C        5.45491        24.82280        -4.47005
   C        5.08287        26.18199        -4.56528
   C        3.74123        26.56041        -4.26786
   C        2.79336        25.58347        -3.88880
   C        3.38342        27.92122        -4.35933
   C        4.30404        28.86357        -4.72849
   C        5.62403        28.48967        -5.02285
   C        6.00499        27.17773        -4.94355
   H        4.71018        -2.33100        -4.82428
   H        1.20341        -2.96805        -1.33324
   H        1.63480        -5.35852        -1.34652
   H        2.86831        -7.30695        -2.21056
   H        4.59773        -7.01474        -3.93988
   H        5.10845        -4.77078        -4.81760
   H        3.24866         2.59489        -3.42699
   H        1.67472         3.58697         1.83033
   H        1.19363         4.98864        -3.12460
   H        2.93795         4.83568        -3.29470
   H        1.99026         7.19964        -2.99460
   H        0.31275         6.54999        -1.32091
   H        1.30313         7.89276        -0.74716
   H        0.92433         6.13271         1.01382
   H        2.63166         6.39870         0.65590
   H        4.39109         4.99579        -1.27205
   H        5.61014         6.34095        -1.09713
   H        6.19092         8.19192        -2.31894
   H        9.22598        11.70085        -1.63285
   H       11.58888         8.41065        -4.36186
   H       10.45056         8.54567        -5.71074
   H       10.22707         7.28308        -4.50228
   H        1.67267        11.43133        -0.27977
   H       -1.37481        15.02392        -1.57892
   H       -0.82114        15.02519        -3.25928
   H       -0.11380        16.15345        -2.10703
   H        4.34518        15.01870        -1.58786
   H        9.24374        18.89072        -1.88036
   H        4.51105        17.07812        -0.55615
   H        4.21270        17.01027        -2.29510
   H        3.29186        19.00824        -0.96481
   H        5.36255        19.41917         0.33045
   H        4.83445        20.86950        -0.53414
   H        7.31719        20.46582        -0.73639
   H        6.49665        20.49263        -2.29731
   H        5.29226        18.33221        -3.97026
   H        4.45276        19.66241        -4.90285
   H        2.25437        20.61743        -2.26067
   H        6.46791        24.51789        -4.68737
   H        1.78769        25.90052        -3.66194
   H        2.36570        28.20370        -4.13336
   H        4.02030        29.90305        -4.79607
   H        6.33739        29.24672        -5.31219
   H        7.01979        26.88397        -5.16869
*
