# ORCA input file
# SCF done       -246.474490486389          0.000953524426
! CAM-B3LYP def2-SVP def2/J RIJCOSX Grid4 TightSCF
%maxcore 5000
%tddft
    Mode sTDDFT
    Ethresh 5.0
    maxcore 5000
end

%pal
  nprocs 6
  end
* xyz 0 1
   O       14.17355        -0.22067        -3.09738
   N       15.06147         0.77159        -3.02153
   C       14.45925         1.81913        -2.51066
   C       15.11839         3.04903        -2.28755
   N       15.64849         4.04489        -2.10580
   C       13.09247         1.51282        -2.22626
   C       12.98721         0.19170        -2.62945
   C       11.87847        -0.67658        -2.60275
   N       10.96816        -1.36938        -2.57738
   C       12.07705         2.40450        -1.64566
   O       12.26702         3.55470        -1.35788
   O       10.92592         1.72409        -1.49751
   C        9.80088         2.28734        -0.96800
   C        9.54808         3.54029        -0.52559
   C        8.21878         3.67515        -0.03339
   C        7.61364         4.83777         0.47882
   C        8.30453         6.11157         0.47185
   C        9.06941         6.64886        -0.52370
   C        9.58747         7.91829        -0.18739
   C        9.23772         8.35842         1.05659
   S        8.23135         7.18865         1.83975
   C        9.60392         9.62767         1.73277
  Cl       10.57502         8.82189        -1.26972
   C        6.32381         4.69318         0.97897
   C        5.60603         3.47243         0.94030
   C        6.18574         2.32715         0.35674
   C        7.49750         2.45946        -0.09099
   S        8.45486         1.18742        -0.81227
   C        5.45748         1.08674         0.18965
   C        5.92782        -0.19201         0.28274
   C        4.94899        -1.15951        -0.03129
   C        3.73394        -0.64405        -0.37806
   S        3.78387         1.08418        -0.30444
   C        2.49838        -1.36106        -0.78154
  Cl        5.27852        -2.84783         0.02136
   C        4.33736         3.59124         1.55697
   C        4.06585         4.85004         2.01042
   S        5.37766         5.96578         1.69632
   C        2.90962         5.29639         2.70914
   C        2.57412         6.59342         3.03682
   C        1.38488         6.65696         3.76738
   C        0.82341         5.39347         4.00431
   S        1.73806         4.13193         3.30703
   C       -0.34850         5.55863         4.79036
   C       -0.53400         6.92743         5.03521
   C        0.54266         7.66552         4.39243
   C        0.72441         9.01667         4.37954
   C        1.81749         9.62204         3.72369
   N        2.70387        10.12011         3.19371
   C       -0.16969         9.90182         5.01875
   N       -0.89267        10.62673         5.53481
   C       -1.64800         7.18916         5.83679
   C       -2.29653         6.03107         6.21213
   S       -1.53507         4.59362         5.54859
   C       -3.42759         5.90732         7.06569
   C       -3.96969         4.75916         7.56764
   C       -5.06444         4.98108         8.43664
   C       -5.82982         4.02206         9.13131
   C       -5.63583         2.59730         8.95714
   C       -5.71192         1.61455         9.90248
   C       -5.52525         0.32250         9.36535
   C       -5.31944         0.29434         8.01665
   S       -5.34458         1.90445         7.38270
   C       -5.10068        -0.87717         7.13168
  Cl       -5.55586        -1.09140        10.34608
   C       -6.80210         4.51738         9.99584
   C       -7.07581         5.89694        10.14814
   C       -6.35292         6.85234         9.40925
   C       -5.33464         6.36264         8.59739
   S       -4.25868         7.33777         7.63730
   C       -6.67756         8.26232         9.48421
   C       -7.91711         8.83607         9.51190
   C       -7.86359        10.24517         9.57022
   C       -6.59959        10.76079         9.59422
   S       -5.43472         9.48265         9.53485
   C       -6.17653        12.18144         9.66542
  Cl       -9.28388        11.21724         9.60287
   C       -8.09825         6.14265        11.10819
   C       -8.59268         4.99627        11.62872
   S       -7.85423         3.54632        10.99837
   O       -9.54756         4.77273        12.57828
   C      -10.27400         5.76526        13.12360
   O      -10.20186         6.93276        12.85237
   C      -11.19080         5.19731        14.12368
   C      -12.16459         5.89126        14.90653
   N      -12.79098         5.05285        15.69763
   O      -12.29101         3.83420        15.48901
   C      -11.33280         3.88801        14.55347
   C      -10.64168         2.72645        14.15729
   N      -10.07020         1.79248        13.82529
   C      -12.45335         7.27424        14.87486
   N      -12.68802         8.39236        14.84311
   H       10.27319         4.33158        -0.51882
   H        9.22749         6.18617        -1.48010
   H       10.21983        10.23095         1.07077
   H       10.15904         9.42828         2.64888
   H        8.71005        10.19069         1.99870
   H        6.92161        -0.44989         0.59679
   H        2.27455        -1.17631        -1.83237
   H        1.64697        -1.02258        -0.19318
   H        2.63214        -2.42993        -0.63545
   H        3.64981         2.77445         1.67936
   H        3.17762         7.43674         2.75307
   H       -1.97460         8.16373         6.15228
   H       -3.57198         3.78769         7.33800
   H       -5.85742         1.79379        10.95106
   H       -4.99223        -1.77491         7.73505
   H       -4.20465        -0.74111         6.52799
   H       -5.94456        -1.00940         6.45446
   H       -8.83846         8.28764         9.44808
   H       -7.03845        12.82771         9.51930
   H       -5.43161        12.39746         8.90155
   H       -5.73470        12.40215        10.63729
   H       -8.41823         7.12267        11.40654
*
