# ORCA input file
# SCF done       -204.926909257984          0.000534135712
! CAM-B3LYP def2-SVP def2/J RIJCOSX Grid4 TightSCF
%maxcore 5000
%tddft
    Mode sTDDFT
    Ethresh 5.0
    maxcore 5000
end

%pal
  nprocs 6
  end
* xyz 0 1
   N        8.41049        -0.45355        -4.80388
   C        8.97867         0.68137        -4.19431
   C        9.08826         0.87355        -2.85132
   S        9.86166         2.35404        -2.45338
   C       10.07737         2.71733        -4.11416
   C        9.53264         1.77372        -4.94314
   N        9.51436         1.85804        -6.32945
   C        9.34600         0.64570        -7.10832
   C       10.14431        -0.51366        -6.52124
   O       11.25520        -0.78774        -6.88169
   C        9.39481        -1.29611        -5.46526
   C        9.49410         3.04864        -7.00668
   C        9.10456         4.24927        -6.51890
   C        9.14534         5.45776        -7.26981
   C        9.51410         5.63225        -8.57730
   C        9.25299         6.99363        -8.95099
   C        9.54053         7.54279       -10.20507
   N        9.77554         7.98500       -11.23941
   C        8.68656         7.65997        -7.88595
   C        8.63380         6.76470        -6.78068
   C        8.31082         7.11525        -5.48353
   C        7.55495         8.31833        -5.06722
   C        7.71501         8.45753        -3.71341
   C        8.50940         7.36516        -3.23224
   C        8.83301         6.54065        -4.29066
   C        8.89268         7.17541        -1.90035
   N        9.20306         7.01761        -0.80520
   C        6.69267         9.12484        -5.86421
   C        6.04524         8.72660        -6.98417
   C        5.18758         9.54934        -7.79143
   C        4.29394         8.94370        -8.65644
   C        3.42698         9.72371        -9.43852
   C        2.41286         9.36901       -10.32558
   C        1.89574         8.02553       -10.70935
   C        2.81126         7.37908       -11.77477
   N        2.12848         6.26099       -12.39440
   C        1.62468         7.08990        -9.50836
   N        2.79116         6.34055        -9.06648
   C        1.87854        10.60233       -10.85780
   C        0.90960        10.83478       -11.76434
   C        0.48627        12.21455       -12.12288
   C        1.27683        13.29926       -11.45981
   C        2.26642        13.05173       -10.58133
   C        2.59605        11.72042       -10.23512
   C        3.53009        11.17523        -9.37480
   C        4.47469        11.76896        -8.50841
   C        5.26285        10.97919        -7.73512
   C        0.48264        12.44091       -13.61968
   C        1.47579        12.06187       -14.42544
   C        1.48911        12.32664       -15.84365
   C        0.82821        13.33747       -16.48427
   C        1.15776        13.29678       -17.88834
   C        0.64820        14.15862       -18.86266
   N        0.25205        14.87897       -19.66639
   C        2.06174        12.28510       -18.09581
   C        2.31455        11.64019       -16.83781
   C        3.11786        10.52766       -16.65562
   C        4.17709        10.05875       -17.59223
   C        4.50838         8.77976       -17.22730
   C        3.76052         8.44037       -16.05837
   C        2.95921         9.51143       -15.68806
   C        3.82175         7.20849       -15.40436
   N        3.86739         6.19269       -14.86661
   C        4.82314        10.82422       -18.59465
   C        4.87151        12.18014       -18.61905
   N        5.41287        12.93700       -19.61233
   C        5.67392        12.43533       -20.88994
   C        4.85870        11.57085       -21.56533
   S        5.41658        11.24590       -23.14962
   C        6.77759        12.26897       -22.92214
   C        6.80178        12.84274       -21.68276
   N        7.79337        13.69334       -21.21336
   C        8.11587        13.65601       -19.80693
   C        7.18564        14.53713       -18.98587
   O        7.54772        15.31576       -18.15094
   C        5.71833        14.32530       -19.35897
   C        8.38081        14.62447       -22.05027
   C        9.23862        15.57790       -21.70838
   H        7.87644        -0.98839        -4.12735
   H        8.73450         0.23029        -2.06993
   H       10.61207         3.60089        -4.39538
   H        9.71191         0.83520        -8.12106
   H        8.28561         0.36500        -7.14599
   H       10.12425        -1.74789        -4.77525
   H        8.87038        -2.10987        -5.97924
   H        9.80103         2.96619        -8.04034
   H        8.69157         4.30027        -5.52452
   H        9.92648         4.90168        -9.24672
   H        8.44299         8.70371        -7.85970
   H        7.28597         9.21952        -3.08938
   H        9.50082         5.70475        -4.22574
   H        6.48795        10.10647        -5.45405
   H        6.13157         7.69401        -7.29799
   H        4.22556         7.86749        -8.71414
   H        0.92736         8.17264       -11.19816
   H        3.77776         7.12918       -11.31448
   H        3.00205         8.12301       -12.55347
   H        2.13339         5.44729       -11.78957
   H        2.59022         6.00277       -13.26186
   H        0.79169         6.42687        -9.79074
   H        1.29144         7.70408        -8.66694
   H        3.03235         5.62216        -9.74034
   H        2.59191         5.88159        -8.18481
   H        0.38587        10.03073       -12.26401
   H       -0.55916        12.31145       -11.78740
   H        1.01622        14.30899       -11.73884
   H        2.81796        13.86369       -10.12969
   H        4.55915        12.84531        -8.46950
   H        5.99303        11.43074        -7.08086
   H       -0.37061        12.96752       -14.02044
   H        2.32490        11.53180       -14.01484
   H        0.17911        14.07106       -16.04423
   H        2.42197        11.95338       -19.05002
   H        5.24213         8.14659       -17.68930
   H        2.23705         9.49698       -14.89461
   H        5.36696        10.26430       -19.34517
   H        4.48931        12.74941       -17.78279
   H        3.94286        11.13282       -21.22488
   H        7.48972        12.37780       -23.71390
   H        9.15141        13.96680       -19.65827
   H        8.01381        12.62774       -19.43940
   H        5.52024        14.91957       -20.25932
   H        5.08486        14.70819       -18.55505
   H        8.05393        14.52923       -23.07522
   H        9.58318        15.74850       -20.70521
   H        9.62375        16.24000       -22.46046
*
