# ORCA input file
# SCF done       -176.312849872850          0.000390464100
! CAM-B3LYP def2-SVP def2/J RIJCOSX Grid4 TightSCF
%maxcore 5000
%tddft
    Mode sTDDFT
    Ethresh 5.0
    maxcore 5000
end

%pal
  nprocs 6
  end
* xyz 0 1
   C       11.53949         2.09201         4.84414
   C       12.80547         2.60397         5.45277
   O       13.40815         3.59365         5.10671
   C       13.08824         1.68432         6.56750
   C       12.16852         0.63240         6.55433
   C       11.28903         0.77624         5.40027
   C       10.54955        -0.21432         4.81317
   C        9.95831        -0.08810         3.53673
   N        9.52580        -0.05890         2.47423
   C       10.38334        -1.50533         5.35774
   N       10.20641        -2.56167         5.76890
   C       12.21023        -0.36463         7.53765
   C       13.17750        -0.29287         8.50606
   C       14.13381         0.74615         8.53769
   C       14.09643         1.77133         7.54752
   C       15.05156         2.80741         7.58379
   C       16.00893         2.82459         8.56071
   C       16.05143         1.81699         9.53758
   C       15.13507         0.80099         9.52822
   C       10.80407         2.87602         4.02171
   C        9.44580         2.69421         3.64023
   C        8.37136         2.07880         4.44037
   N        7.20509         2.09817         3.87228
   C        7.39581         2.69067         2.65694
   C        8.79741         3.10360         2.50208
   C        8.99340         3.73911         1.22148
   S       10.41314         4.35964         0.66953
   C        7.69287         3.71186         0.60757
   C        6.73272         3.05372         1.51609
   N        5.48474         3.01700         0.96162
   C        5.59888         3.59826        -0.19051
   C        6.95625         4.07577        -0.50370
   C        7.30160         4.75765        -1.68974
   S        6.09538         5.16305        -2.87701
   C        7.27501         5.95711        -3.87423
   C        8.54001         5.88003        -3.29513
   C        8.55504         5.21572        -2.08348
   C        6.86267         6.57839        -5.07349
   C        7.68302         7.26013        -5.91939
   C        7.25472         7.89475        -7.10721
   C        8.18552         8.58601        -8.01645
   N        7.63636         9.09293        -9.07429
   C        6.30764         8.79020        -8.97428
   C        6.02846         8.04557        -7.73008
   C        4.62111         7.76049        -7.65482
   S        3.75126         7.15237        -6.39039
   C        4.08395         8.22982        -8.90840
   C        5.14030         8.92546        -9.67120
   N        4.63828         9.43985       -10.82831
   C        3.38519         9.10529       -10.84641
   C        2.95266         8.30647        -9.68737
   C        1.62900         7.81845        -9.51842
   C        1.19640         6.73803        -8.82609
   C       -0.25549         6.63045        -8.47195
   O       -1.15186         7.26628        -8.97762
   C       -0.30637         5.65301        -7.37529
   C        0.96121         5.09760        -7.18641
   C        1.87845         5.63156        -8.18761
   C        3.05018         5.04866        -8.59077
   C        3.79638         5.47501        -9.70693
   N        4.43219         5.76149       -10.61893
   C        3.64582         3.93874        -7.95592
   N        4.19925         3.06212        -7.46381
   C        1.18866         4.16763        -6.16491
   C        0.13825         3.80170        -5.36393
   C       -1.16159         4.32428        -5.54356
   C       -1.40276         5.28107        -6.57246
   C       -2.70010         5.80424        -6.74447
   C       -3.72037         5.39132        -5.93205
   C       -3.48938         4.44762        -4.91850
   C       -2.23908         3.92616        -4.72663
   H       11.49085        -1.16739         7.54058
   H       13.22179        -1.05130         9.27418
   H       15.00970         3.57652         6.82886
   H       16.74187         3.61688         8.58665
   H       16.81612         1.85061        10.29929
   H       15.16649         0.02417        10.27828
   H       11.29289         3.77267         3.65143
   H        8.48868         1.68606         5.43577
   H        4.75094         3.70608        -0.84515
   H        9.41786         6.30085        -3.75019
   H        9.43592         5.06041        -1.48594
   H        5.81000         6.50625        -5.31230
   H        8.73966         7.33767        -5.70073
   H        9.24410         8.68392        -7.84504
   H        2.74728         9.38696       -11.66586
   H        0.84532         8.41980        -9.97198
   H        2.17255         3.76002        -6.00030
   H        0.29632         3.08942        -4.56703
   H       -2.86656         6.52913        -7.52559
   H       -4.71467         5.79035        -6.06586
   H       -4.30953         4.13605        -4.28887
   H       -2.05912         3.19970        -3.94750
*
