# ORCA input file
# SCF done       -181.999307338595          0.000701736795
! CAM-B3LYP def2-SVP def2/J RIJCOSX Grid4 TightSCF
%maxcore 5000
%tddft
    Mode sTDDFT
    Ethresh 5.0
    maxcore 5000
end

%pal
  nprocs 6
  end
* xyz 0 1
   C       13.62514         2.24993         1.05691
   C       13.08399         2.08607         2.26534
   C       11.81262         1.44017         2.43473
   C       11.20592         0.77446         1.42806
   C       11.89642         0.65888         0.07773
   C       12.89865         1.80592        -0.18367
   N       13.88911         1.49074        -1.18700
   C       14.20678         0.28697        -1.35847
   C       13.54955        -0.81980        -0.63470
   N       12.49294        -0.65975         0.02560
   F       14.11454        -2.02060        -0.68749
   F       15.14741        -0.02176        -2.24365
   C        9.97160         0.06547         1.58884
   C        9.54519        -1.05116         0.73421
   N        8.39327        -1.56296         1.05246
   C        7.95388        -0.83268         2.11483
   C        8.93435         0.19801         2.48920
   C        8.41211         0.97179         3.59385
   S        9.15424         2.25871         4.31348
   C        7.12543         0.39130         3.88978
   C        6.88054        -0.72265         2.95699
   N        5.67960        -1.31564         3.20373
   C        5.18596        -0.67709         4.22315
   C        6.02185         0.41559         4.72884
   C        5.66216         1.26348         5.82956
   C        6.30362         2.47448         6.00921
   C        5.95217         3.31088         7.07627
   C        6.47130         4.54385         7.46404
   C        7.59095         5.25758         6.79686
   C        7.14661         6.60634         6.20443
   N        6.13256         6.38461         5.18759
   C        8.80050         5.44402         7.73191
   N        9.93405         5.92082         6.95989
   C        5.71941         4.95657         8.62643
   C        5.78638         6.06206         9.39177
   C        4.86331         6.27767        10.54295
   C        3.90322         5.16349        10.79165
   C        3.84862         4.06119        10.02075
   C        4.73092         3.90844         8.92518
   C        4.88950         2.91005         7.98236
   C        4.24891         1.66650         7.78041
   C        4.62741         0.87400         6.74374
   C        5.68771         6.66857        11.74499
   C        5.72417         5.99368        12.89638
   C        6.49843         6.38729        14.03587
   C        7.54699         7.40670        14.11223
   N        8.07042         7.55598        15.29665
   C        7.41855         6.66516        16.09740
   C        6.43643         5.89573        15.31754
   C        5.72036         4.98633        16.17594
   S        4.50229         3.97740        15.72130
   C        6.27710         5.21704        17.48697
   C        7.32464         6.25780        17.40126
   N        7.83220         6.53398        18.63328
   C        7.15713         5.79478        19.46396
   C        6.14046         4.94393        18.83096
   C        5.25609         4.05268        19.52267
   C        4.71521         2.96464        18.93231
   C        3.83518         2.07124        19.63127
   C        3.35644         2.37052        20.84035
   C        3.67636         3.68124        21.50703
   C        4.98826         4.32182        20.99714
   N        5.03815         5.75020        21.21755
   C        3.96035         6.39689        21.24602
   C        2.63867         5.74414        21.18099
   N        2.49709         4.50397        21.31918
   F        1.57184         6.51174        20.98754
   F        3.99760         7.71500        21.40199
   H       14.57751         2.73026         0.89913
   H       13.59159         2.44123         3.14897
   H       11.35643         1.47107         3.41107
   H       11.13097         0.67222        -0.71065
   H       12.35267         2.67799        -0.57226
   H       10.12551        -1.46666        -0.06928
   H        4.21781        -0.95070         4.60414
   H        7.06862         2.78002         5.31568
   H        7.93414         4.63909         5.96075
   H        8.05227         7.10977         5.83233
   H        6.69897         7.23205         6.97969
   H        6.51520         5.83028         4.42840
   H        5.82369         7.26841         4.79850
   H        8.99027         4.48563         8.24419
   H        8.58006         6.19436         8.49499
   H       10.19851         5.22582         6.26831
   H       10.73402         6.07650         7.56305
   H        6.51173         6.84218         9.21012
   H        4.26506         7.17309        10.29209
   H        3.22432         5.29819        11.61965
   H        3.12895         3.28231        10.22555
   H        3.46892         1.35114         8.45768
   H        4.15239        -0.08485         6.60799
   H        6.28002         7.56420        11.61523
   H        5.12480         5.10374        13.03139
   H        7.91241         7.99302        13.28742
   H        7.37729         5.81537        20.51518
   H        4.94626         2.74544        17.90197
   H        3.55326         1.15481        19.13624
   H        2.63719         1.74831        21.34660
   H        3.75068         3.52373        22.59238
   H        5.83280         3.90278        21.56254
*
