# ORCA input file
# SCF done       -208.218909281982          0.000898700033
! CAM-B3LYP def2-SVP def2/J RIJCOSX Grid4 TightSCF
%maxcore 5000
%tddft
    Mode sTDDFT
    Ethresh 5.0
    maxcore 5000
end

%pal
  nprocs 6
  end
* xyz 0 1
   C        3.93631        -0.49952        -6.47536
   C        2.72550        -0.62541        -7.09852
   F        2.64677        -1.29121        -8.26246
   C        1.54660        -0.08306        -6.56730
   C        1.60598         0.59776        -5.38340
   C        2.82815         0.75726        -4.69781
   C        4.01647         0.19925        -5.25524
   C        5.25512         0.35217        -4.59001
   C        5.30087         1.03756        -3.40592
   C        4.10720         1.58070        -2.84542
   C        2.89959         1.45288        -3.47100
   C        4.41921         2.23634        -1.56378
   O        3.67281         2.84681        -0.83482
   C        5.85845         1.93111        -1.31411
   C        6.41799         1.37933        -2.53265
   C        7.74038         1.39867        -2.88402
   C        8.74483         2.01313        -2.10557
   N        9.58452         2.55366        -1.54082
   C        8.22831         0.90226        -4.11147
   N        8.66560         0.49287        -5.08995
   C        6.40331         2.10000        -0.08552
   C        7.60448         1.51798         0.40543
   C        8.13591         0.18464         0.06403
   N        9.18629        -0.16078         0.74080
   C        9.47045         0.89885         1.55389
   C        8.47856         1.97186         1.35975
   C        8.77075         3.08782         2.22184
   S        7.85137         4.43853         2.40362
   C        9.95355         2.68120         2.93542
   C       10.33673         1.30760         2.52892
   N       11.39495         0.87075         3.26782
   C       11.67076         1.82922         4.09935
   C       10.81859         3.01790         3.94930
   C       10.91785         4.25255         4.66379
   C       11.26897         4.34024         6.02780
   C       11.18782         5.58079         6.74643
   N       11.47400         5.60796         8.06852
   C       11.82978         4.51272         8.65299
   C       11.90827         3.28171         7.94079
   N       11.62842         3.21197         6.68188
   F       12.27614         2.16461         8.55709
   F       12.12476         4.56688         9.94635
   C       10.74931         6.77033         6.12699
   C       10.54826         6.71264         4.73532
   C       10.63462         5.46689         4.01434
   N       10.45907         5.64612         2.70405
   S       10.23128         7.20176         2.41083
   N       10.30770         7.74013         3.91558
   C       10.46179         7.97114         6.84988
   C       11.16468         8.54254         8.00774
   N       10.69010         9.68480         8.40540
   C        9.63197         9.96008         7.59014
   C        9.47119         8.88396         6.58704
   C        8.28606         9.11369         5.81018
   S        7.50115         8.04822         4.82771
   C        7.81865        10.40297         6.24235
   C        8.63679        10.87606         7.38295
   N        8.13094        12.04239         7.87280
   C        7.08820        12.31287         7.14813
   C        6.81707        11.33207         6.08504
   C        5.71775        11.34945         5.18155
   C        5.67348        10.76830         3.95755
   C        4.36307        10.42582         3.32011
   O        3.28225        10.87645         3.61102
   C        4.69186         9.38201         2.33194
   C        3.84778         8.60112         1.59400
   C        4.38953         7.62741         0.72588
   C        5.80478         7.46928         0.64531
   C        6.33707         6.49207        -0.21925
   C        5.48619         5.73283        -0.97208
   C        4.09328         5.87188        -0.90975
   C        3.56066         6.80434        -0.06415
   F        5.99448         4.81540        -1.82237
   C        6.65458         8.29355         1.41601
   C        6.10789         9.24068         2.23942
   C        6.72925        10.21313         3.13139
   C        8.00543        10.70727         3.02797
   C        8.47857        11.80727         3.77025
   N        8.88883        12.72223         4.32877
   C        8.97281        10.14651         2.18059
   N        9.79475         9.66539         1.53702
   H        4.82362        -0.92735        -6.91513
   H        0.62035        -0.21510        -7.10364
   H        0.71133         1.02387        -4.95496
   H        6.13747        -0.08579        -5.02942
   H        2.00720         1.87591        -3.03412
   H        5.82969         2.69038         0.62328
   H        7.69069        -0.49535        -0.64198
   H       12.47366         1.73929         4.80808
   H       12.01063         8.09112         8.49324
   H        6.50597        13.19969         7.32725
   H        4.79728        11.80017         5.53828
   H        2.77785         8.72337         1.67282
   H        7.40435         6.35062        -0.28904
   H        3.47080         5.23222        -1.51357
   H        2.49035         6.92450         0.00659
   H        7.72077         8.14432         1.35012
*
