# ORCA input file
# SCF done       -178.254000950169          0.000754794439
! CAM-B3LYP def2-SVP def2/J RIJCOSX Grid4 TightSCF
%maxcore 5000
%tddft
    Mode sTDDFT
    Ethresh 5.0
    maxcore 5000
end

%pal
  nprocs 6
  end
* xyz 0 1
   C        6.54879        -4.82422         1.38260
   C        6.18187        -5.22597         0.12063
   N        7.16418        -5.73350        -0.78182
   O        8.31755        -5.71418        -0.39774
   O        6.80553        -6.15028        -1.86122
   C        4.79037        -5.09124        -0.14785
   C        4.15937        -5.45421        -1.43687
   C        4.12703        -4.54995         0.94347
   S        5.23116        -4.24985         2.27036
   C        2.72588        -4.29619         1.06557
   N        1.87526        -4.90213         0.25170
   C        0.64265        -4.50623         0.63144
   C        0.70603        -3.58597         1.76624
   C       -0.64888        -3.16419         2.15304
   O       -0.98721        -2.41190         3.04424
   C       -1.50277        -3.88172         1.18748
   C       -0.67297        -4.68981         0.27552
   N       -1.44492        -5.34015        -0.62837
   C       -2.67600        -4.99154        -0.33868
   C       -2.78395        -4.07870         0.78056
   C        2.04369        -3.41893         2.05215
   C        2.67256        -2.57583         3.00749
   C        1.98868        -1.86120         3.93272
   C        2.55898        -0.98469         4.91581
   C        1.70122        -0.21886         5.68812
   C        2.21101         0.66753         6.64838
   C        1.56777         1.54843         7.51966
   C        0.10031         1.75255         7.64825
   C       -0.39265         1.29362         9.03750
   N       -1.81641         1.05649         8.98983
   C       -0.28877         3.21458         7.36155
   N       -1.72804         3.33756         7.18182
   C        2.60047         2.20916         8.27964
   C        2.54278         3.12686         9.26598
   C        3.78273         3.67938         9.88625
   C        5.05531         3.06692         9.41057
   C        5.09596         2.14199         8.43104
   C        3.90028         1.68819         7.82956
   C        3.64947         0.75780         6.83643
   C        4.50485        -0.04501         6.05099
   C        3.97306        -0.88212         5.12279
   C        3.78374         5.16044         9.59186
   C        3.12164         6.06061        10.32772
   C        3.13536         7.46132        10.02576
   N        4.14661         8.01996         9.37702
   C        3.91020         9.34583         9.38453
   C        2.66205         9.65682        10.08922
   C        2.40735        11.10846        10.09820
   O        1.46894        11.70288        10.58161
   C        3.57745        11.63574         9.37464
   C        4.46605        10.53155         8.95409
   N        5.53355        11.00834         8.27599
   C        5.36674        12.31234         8.24630
   C        4.16605        12.76922         8.90733
   C        2.12965         8.45024        10.47275
   C        0.86800         8.21668        11.08897
   C        0.18632         7.05119        10.99959
   C       -1.08402         6.81650        11.59045
   C       -1.82148         5.62543        11.63898
   N       -1.36304         4.39718        11.13888
   O       -0.21128         4.31718        10.71829
   O       -2.11713         3.44107        11.14492
   C       -3.08876         5.76918        12.29167
   C       -4.09346         4.69215        12.50187
   C       -3.27215         7.04390        12.72262
   S       -1.96052         8.09415        12.35898
   H        7.53806        -4.84973         1.79664
   H        4.70133        -4.99849        -2.26425
   H        3.11507        -5.15957        -1.44455
   H        4.21744        -6.53279        -1.58031
   H       -3.49919        -5.37855        -0.91371
   H       -3.69730        -3.67374         1.16960
   H        3.74775        -2.49705         2.95260
   H        0.90872        -1.93119         3.94043
   H        0.63490        -0.30520         5.53859
   H       -0.40839         1.12084         6.91315
   H       -0.09842         2.04693         9.78035
   H        0.10355         0.35209         9.30152
   H       -2.28466         1.90146         8.67413
   H       -2.17288         0.80420         9.90346
   H        0.28510         3.56058         6.48378
   H       -0.01193         3.84613         8.20861
   H       -2.03173         2.77078         6.39583
   H       -1.97552         4.30120         6.98259
   H        1.61344         3.52268         9.64485
   H        3.69671         3.55771        10.97521
   H        5.95856         3.43432         9.87268
   H        6.03785         1.72799         8.10204
   H        5.57355         0.01417         6.19555
   H        4.62968        -1.50057         4.53120
   H        4.31827         5.47987         8.70995
   H        2.54948         5.75053        11.19192
   H        6.09271        12.93990         7.75908
   H        3.84806        13.78965         8.99003
   H        0.43153         9.06412        11.60439
   H        0.60061         6.23334        10.43106
   H       -4.43805         4.30165        11.54602
   H       -4.94156         5.08044        13.05971
   H       -3.65396         3.85891        13.04736
   H       -4.12220         7.43401        13.24606
*
