# ORCA input file
# SCF done       -218.240719899605          0.005914085875
! CAM-B3LYP def2-SVP def2/J RIJCOSX Grid4 TightSCF
%maxcore 5000
%tddft
    Mode sTDDFT
    Ethresh 5.0
    maxcore 5000
end

%pal
  nprocs 6
  end
* xyz 0 1
   C        8.95558        -3.51980         3.33581
   C        9.83031        -4.15303         2.46564
   C        9.36343        -4.84302         1.35401
   C        8.00667        -4.91904         1.07558
   C        7.12118        -4.29607         1.93973
   C        7.59624        -3.59573         3.07542
   C        6.45610        -3.06223         3.80299
   C        6.45886        -2.09490         4.76370
   C        7.63808        -1.49907         5.26494
   N        8.56931        -0.99464         5.70238
   C        5.29322        -1.51074         5.30574
   N        4.38827        -0.97372         5.76472
   C        5.27394        -3.71166         3.23283
   C        5.67027        -4.20696         1.91235
   C        4.85932        -4.34878         0.82867
   C        3.48427        -4.03170         0.84062
   N        2.37545        -3.74390         0.78842
   C        5.32482        -4.73034        -0.44991
   N        5.66496        -5.02460        -1.50465
   C        4.12997        -3.95419         3.91094
   C        3.06620        -4.81854         3.49165
   N        3.27130        -5.94372         2.83600
   C        2.05718        -6.53459         2.72857
   C        1.01404        -5.72703         3.37625
   C       -0.30436        -6.37140         3.24137
   O       -1.38035        -5.97780         3.62382
   C        0.02479        -7.60951         2.50072
   C        1.47710        -7.65814         2.20307
   N        1.78619        -8.78657         1.51556
   C        0.65295        -9.42366         1.37653
   C       -0.48970        -8.74210         1.96552
   C        1.64343        -4.61246         3.86196
   C        1.13990        -3.48176         4.56308
   C        1.78936        -2.29634         4.52706
   C        1.50814        -1.07271         5.19330
   S        1.90803         0.31349         4.26849
   C        1.25814         1.43515         5.41093
   C        0.76307         0.73416         6.53120
   C        0.97736        -0.68671         6.43949
   C        0.74565        -1.48421         7.59008
   C        1.21926        -2.90148         7.74852
   F        2.35187        -3.18462         7.08431
   F        1.48551        -3.18462         9.03500
   F        0.31109        -3.82119         7.36697
   C        0.14075        -0.91728         8.68711
   C       -0.21257         0.43066         8.71985
   C        0.12747         1.27719         7.68485
   O       -0.10115         2.59995         7.68996
   C       -0.69975         3.19840         8.82305
   C        1.41666         2.76238         4.95012
   C        1.01016         3.97652         5.40342
   C        1.33817         5.16715         4.71024
   N        1.38207         6.32417         5.36277
   C        1.84295         7.23083         4.49056
   C        2.08464         6.62823         3.16822
   C        2.55456         7.65342         2.21512
   O        2.83639         7.51955         1.04301
   C        2.58720         8.86830         3.03929
   C        2.15159         8.57078         4.41926
   N        2.16758         9.69070         5.17679
   C        2.57191        10.64490         4.37038
   C        2.84003        10.20319         3.01957
   C        1.72363         5.30877         3.27697
   C        1.57864         4.33489         2.24060
   C        2.04966         4.52570         0.98388
   C        1.69852         3.72933        -0.14094
   C        1.45859         2.39133        -0.25202
   C        0.63745         1.80795        -1.32032
   C        0.22117         2.40955        -2.47474
   C        0.52035         3.72384        -2.89788
   N        0.70404         4.77342        -3.32589
   C       -0.56584         1.76484        -3.45564
   N       -1.20147         1.30580        -4.29305
   C        0.31447         0.44943        -0.90995
   C        1.05958         0.13888         0.24902
   C        0.89561        -1.07547         0.89335
   C       -0.00465        -1.98884         0.36729
   C       -0.71657        -1.69715        -0.78777
   C       -0.56984        -0.47952        -1.43623
   C        1.89218         1.28032         0.58772
   C        3.03700         1.20602         1.33965
   C        3.86609         2.30219         1.65042
   N        4.56565         3.15681         1.95781
   C        3.58415        -0.01303         1.79185
   N        4.11388        -0.97442         2.13681
   H        9.33054        -2.99539         4.20013
   H       10.89096        -4.11228         2.66081
   H       10.06664        -5.33262         0.69771
   H        7.65403        -5.46553         0.21555
   H        4.00905        -3.53202         4.90157
   H        0.62012       -10.36927         0.86365
   H       -1.49945        -9.10090         1.95613
   H        0.20356        -3.61033         5.08526
   H        2.59500        -2.19718         3.80512
   H       -0.05215        -1.52088         9.56031
   H       -0.70968         0.80605         9.59798
   H       -0.73884         4.26417         8.60449
   H       -0.10003         3.03603         9.72173
   H       -1.71400         2.82346         8.98121
   H        2.03245         2.78523         4.05779
   H        0.50049         4.09729         6.34168
   H        2.67986        11.65244         4.73268
   H        3.17283        10.82559         2.21142
   H        0.95528         3.47328         2.44890
   H        2.58043         5.44384         0.75971
   H        1.50546         4.32632        -1.02495
   H        1.43931        -1.30842         1.79417
   H       -0.14404        -2.93668         0.86148
   H       -1.40594        -2.42520        -1.18679
   H       -1.14447        -0.26761        -2.32254
*
