# ORCA input file
# SCF done       -222.314548901184          0.000529455727
! CAM-B3LYP def2-SVP def2/J RIJCOSX Grid4 TightSCF
%maxcore 5000
%tddft
    Mode sTDDFT
    Ethresh 5.0
    maxcore 5000
end

%pal
  nprocs 6
  end
* xyz 0 1
   C       -7.52562       -15.65560        -6.19577
   C       -8.57603       -16.21248        -5.48049
   C       -9.26225       -15.47670        -4.52601
   C       -8.92634       -14.15569        -4.26822
   C       -7.88219       -13.58953        -4.97850
   C       -7.17077       -14.34115        -5.93990
   C       -6.10795       -13.50976        -6.49476
   C       -5.23531       -13.88722        -7.48664
   C       -5.28542       -15.12552        -8.15765
   N       -5.26853       -16.10771        -8.75280
   C       -4.18484       -13.09936        -7.99419
   N       -3.30139       -12.51884        -8.44674
   C       -6.12622       -12.25759        -5.76359
   C       -7.33507       -12.24133        -4.95924
   C       -8.01467       -11.12376        -4.54021
   C       -7.62177        -9.80435        -4.84073
   N       -7.37627        -8.71510        -5.11212
   C       -9.23958       -11.16085        -3.84731
   N      -10.23124       -11.12378        -3.26903
   C       -5.13984       -11.29610        -5.82244
   C       -4.83968       -10.33673        -4.84543
   S       -5.27133       -10.57805        -3.16955
   C       -4.68658        -9.00104        -2.73591
   C       -4.25481        -8.29951        -3.86333
   C       -4.21273        -9.09703        -5.01629
   C       -3.54087        -8.67162        -6.29071
   C       -2.35607        -9.58998        -6.62501
   C       -3.01415        -7.23889        -6.15775
   C       -4.00007        -6.37270        -5.39482
   C       -4.07494        -6.80584        -3.92797
   C       -5.26897        -6.09642        -3.27999
   C       -4.68757        -8.69969        -1.34689
   C       -3.98451        -7.71888        -0.73486
   C       -4.02351        -7.41862         0.67203
   C       -4.53562        -8.28353         1.61333
   C       -4.61791        -7.89011         2.96254
   C       -5.12128        -8.55842         4.06960
   C       -5.68386        -9.93980         4.07999
   C       -5.13136       -10.80575         5.22637
   N       -5.02822       -12.18226         4.77827
   C       -7.22431        -9.89427         4.09542
   N       -7.70118        -9.40787         2.81520
   C       -5.05783        -7.63136         5.17622
   C       -5.48690        -7.72173         6.44799
   C       -5.40077        -6.56635         7.39245
   C       -4.68630        -5.37190         6.84824
   C       -4.25018        -5.29891         5.57810
   C       -4.44252        -6.38420         4.68950
   C       -4.17450        -6.55622         3.34913
   C       -3.60027        -5.70903         2.37047
   C       -3.52046        -6.13625         1.08752
   C       -4.81011        -7.01449         8.70437
   C       -5.51552        -7.63570         9.65500
   C       -4.98635        -8.08232        10.90820
   S       -3.30150        -7.89411        11.27292
   C       -3.49310        -8.73525        12.79105
   C       -4.79933        -9.20017        12.94065
   C       -5.66017        -8.73936        11.93010
   C       -7.15904        -8.84236        12.03064
   C       -7.81013        -7.45423        11.96897
   C       -7.55124        -9.48915        13.36384
   C       -6.65076       -10.66734        13.69279
   C       -5.21938       -10.20163        13.97890
   C       -4.30040       -11.43040        13.96229
   C       -2.44373        -8.78783        13.72563
   C       -1.17943        -8.31936        13.50980
   C       -0.20411        -8.34014        14.51855
   C        1.11957        -7.99434        14.39350
   C        1.98544        -7.62527        15.50207
   C        1.78606        -7.88002        16.83454
   C        0.70314        -8.60415        17.37400
   N       -0.14668        -9.18578        17.88350
   C        2.66837        -7.47877        17.85907
   N        3.33899        -7.18353        18.74299
   C        3.12202        -6.91453        14.92888
   C        3.02765        -6.96374        13.51944
   C        3.97723        -6.34118        12.72708
   C        5.02091        -5.66994        13.34714
   C        5.12036        -5.62833        14.73004
   C        4.17590        -6.24922        15.53428
   C        1.86039        -7.75950        13.16639
   C        1.64203        -8.36317        11.95424
   C        2.40903        -8.10607        10.79972
   N        2.97940        -7.91701         9.82136
   C        0.71365        -9.40415        11.74069
   N        0.02373       -10.29651        11.52618
   H       -7.00297       -16.24509        -6.93080
   H       -8.85812       -17.23701        -5.67002
   H      -10.06896       -15.93555        -3.97478
   H       -9.46151       -13.59342        -3.52019
   H       -4.50113       -11.30234        -6.69216
   H       -4.27024        -8.71354        -7.10697
   H       -1.70541        -9.69072        -5.75852
   H       -1.78278        -9.14704        -7.43596
   H       -2.65696       -10.58226        -6.94405
   H       -2.83342        -6.82958        -7.15253
   H       -2.06077        -7.25296        -5.62338
   H       -4.99033        -6.47068        -5.84399
   H       -3.70528        -5.32329        -5.44530
   H       -3.14583        -6.51030        -3.42567
   H       -6.19009        -6.45050        -3.73740
   H       -5.18868        -5.02458        -3.44719
   H       -5.32914        -6.27442        -2.21113
   H       -5.29061        -9.36768        -0.74590
   H       -3.35608        -7.07165        -1.32984
   H       -4.88445        -9.26440         1.33176
   H       -5.39088       -10.43408         3.14987
   H       -5.76362       -10.68975         6.12385
   H       -4.12252       -10.46884         5.48032
   H       -5.94416       -12.55473         4.55232
   H       -4.61953       -12.76675         5.49831
   H       -7.55861        -9.28333         4.95336
   H       -7.61776       -10.90684         4.22638
   H       -7.36281        -8.46552         2.64976
   H       -8.71419        -9.38914         2.78803
   H       -5.93923        -8.61976         6.84296
   H       -6.44495        -6.26970         7.59447
   H       -4.54877        -4.55232         7.53725
   H       -3.75344        -4.41021         5.21682
   H       -3.23763        -4.73262         2.65638
   H       -3.09119        -5.49675         0.32938
   H       -3.75680        -6.81741         8.84349
   H       -6.55965        -7.85866         9.47967
   H       -7.53889        -9.45602        11.20456
   H       -7.40069        -6.81951        12.75214
   H       -8.88173        -7.54936        12.13011
   H       -7.65019        -6.95718        11.01806
   H       -8.59308        -9.80951        13.31497
   H       -7.46751        -8.74541        14.15982
   H       -6.63917       -11.35902        12.84706
   H       -7.03462       -11.20569        14.56038
   H       -5.18011        -9.73758        14.97204
   H       -4.27785       -11.86320        12.96432
   H       -4.68491       -12.17780        14.65261
   H       -3.28086       -11.19456        14.24717
   H       -2.67497        -9.20917        14.69481
   H       -0.94500        -7.89065        12.54552
   H       -0.56355        -8.57694        15.51080
   H        3.90861        -6.36267        11.65153
   H        5.76438        -5.17367        12.74224
   H        5.94255        -5.10284        15.19134
   H        4.26781        -6.20378        16.60693
*
