# ORCA input file
# SCF done       -179.312285553216          0.015367281163
! CAM-B3LYP def2-SVP def2/J RIJCOSX Grid4 TightSCF
%maxcore 5000
%tddft
    Mode sTDDFT
    Ethresh 5.0
    maxcore 5000
end

%pal
  nprocs 6
  end
* xyz 0 1
   C       -1.10568       -11.12282         2.57965
   C        0.06483       -11.02849         1.86781
   C        1.18464       -11.86805         2.04629
   N        2.16279       -12.46532         2.12198
   C        0.27532       -10.13270         0.80021
   N        0.49810        -9.47162        -0.11171
   C       -1.43740       -12.21226         3.49414
   C       -2.77262       -12.08126         3.91392
   C       -3.36036       -13.00041         4.76103
   C       -2.60331       -14.08598         5.18111
   C       -1.27700       -14.23745         4.75192
   C       -0.68668       -13.29738         3.91454
  Cl       -0.37632       -15.61256         5.23026
  Cl       -3.30726       -15.26260         6.21440
   C       -3.37048       -10.89739         3.27022
   O       -4.50760       -10.50229         3.33744
   C       -2.25268       -10.25002         2.51312
   C       -2.47763        -9.00695         2.00476
   C       -1.59600        -7.99696         1.54532
   C       -1.98055        -6.97116         0.55881
   N       -1.07498        -6.07008         0.33516
   C       -0.03440        -6.37427         1.15715
   C       -0.33635        -7.60143         1.94109
   C        0.74845        -7.88412         2.83992
   S        0.93454        -9.10404         3.92771
   C        1.68966        -6.82213         2.59581
   C        1.18601        -5.90269         1.55326
   N        2.06974        -4.88390         1.36509
   C        3.05307        -5.10956         2.18869
   C        2.88872        -6.31956         2.99913
   C        3.77025        -6.86390         4.03054
   S        3.27173        -6.41476         5.79617
   C        4.91125        -5.85772         5.58750
   C        5.10173        -6.22338         4.30591
   C        6.20396        -6.09894         3.35883
   O        6.07858        -6.16482         2.15905
   O        7.37700        -5.90491         3.98886
   C        8.51496        -5.72863         3.15001
   C        8.85345        -6.89501         2.29390
   C        9.81629        -6.77955         1.17685
   N        9.97785        -7.87039         0.50627
   C        9.13001        -8.78388         1.08487
   C        8.44725        -8.18878         2.24365
   C        7.53054        -9.18458         2.79124
   S        6.51792        -8.98189         4.14550
   C        7.62493       -10.30172         1.98710
   C        8.64453       -10.04734         0.92335
   N        8.76708       -11.12499         0.10684
   C        7.92251       -12.00758         0.54748
   C        7.11398       -11.59620         1.70009
   C        6.14876       -12.44444         2.20412
   C        5.20391       -12.26428         3.22838
   C        4.36577       -13.34956         3.76710
   C        4.43942       -14.67752         3.46778
   C        3.56143       -15.64683         4.00600
   N        2.82728       -16.46430         4.32842
   C        5.36509       -15.30270         2.59789
   N        6.11195       -15.91099         1.97109
   C        3.47653       -12.75409         4.75833
   C        3.79264       -11.37985         4.85492
   C        4.82058       -11.09265         3.88402
   O        5.19083        -9.85778         3.56899
   C        3.12691       -10.54236         5.72767
   C        2.10385       -11.08192         6.50098
   C        1.77391       -12.43568         6.39872
   C        2.46573       -13.28455         5.53676
  Cl        0.49427       -13.06829         7.35124
  Cl        1.25010       -10.06161         7.57811
   H       -4.38420       -12.88451         5.07855
   H        0.33453       -13.43658         3.60352
   H       -3.52739        -8.71813         2.00618
   H       -2.91689        -6.95843         0.02849
   H        3.89430        -4.44375         2.23411
   H        3.80170        -7.95296         3.96478
   H        5.51257        -5.36488         6.32573
   H        9.33860        -5.50817         3.83677
   H        8.35126        -4.85850         2.49935
   H       10.36291        -5.88722         0.92921
   H        7.83264       -12.96752         0.06595
   H        6.11815       -13.40911         1.71571
   H        3.36653        -9.49565         5.82769
   H        2.18701       -14.32482         5.48985
*
