# ORCA input file
# SCF done       -229.427830573138          0.000428600681
! CAM-B3LYP def2-SVP def2/J RIJCOSX Grid4 TightSCF
%maxcore 5000
%tddft
    Mode sTDDFT
    Ethresh 5.0
    maxcore 5000
end

%pal
  nprocs 6
  end
* xyz 0 1
   C        0.37361         2.34862         8.17374
   C        0.90101         3.45959         7.56131
   C        1.89325         3.41043         6.56555
   N        2.67980         3.41855         5.72841
   C        0.56663         4.77106         7.95160
   N        0.35002         5.84659         8.29196
   C        0.90676         0.99360         8.07688
   C        0.45908         0.25570         9.21173
   C        0.83298        -1.04031         9.41493
   C        1.67391        -1.67174         8.46949
   C        2.11173        -0.94353         7.32624
   C        1.71729         0.40326         7.14707
   C        2.94264        -1.58830         6.38824
   C        3.32657        -2.88924         6.56951
   C        2.89630        -3.60510         7.69611
   C        2.08815        -3.00883         8.62594
   C       -0.42947         1.10785        10.02743
   O       -0.95770         0.83801        11.08363
   C       -0.59886         2.35362         9.23714
   C       -1.64297         3.19118         9.51702
   C       -2.30111         4.11123         8.68875
   S       -2.13640         4.18849         6.94017
   C       -3.37701         5.39566         6.76613
   C       -3.89923         5.72946         8.02078
   C       -3.29795         4.99775         9.07459
   S       -3.95597         5.40872        10.61193
   C       -5.04576         6.56273         9.84950
   C       -6.00830         7.35929        10.61323
   O       -6.79959         8.08313        10.04573
   C       -5.93080         7.25039        12.11783
   C       -4.79406         8.13417        12.63812
   C       -4.89390         6.61248         8.49174
   C       -3.78267         5.89904         5.51440
   C       -3.18148         5.58238         4.33849
   C       -3.58068         5.99986         3.02877
   C       -4.77918         6.64078         2.78324
   C       -5.16317         6.95678         1.46855
   C       -6.32253         7.53176         0.96185
   C       -7.50805         8.06129         1.69607
   C       -8.24747         6.94557         2.46102
   N       -9.63646         7.32479         2.63157
   C       -7.10703         9.22379         2.62286
   N       -8.28799         9.87885         3.16419
   C       -6.19663         7.51365        -0.47539
   C       -7.06949         7.84913        -1.44344
   C       -6.76034         7.62279        -2.88015
   C       -5.34554         7.19999        -3.15585
   C       -4.48762         6.86853        -2.17544
   C       -4.87984         6.95726        -0.81652
   C       -4.26716         6.61159         0.36758
   C       -3.02656         5.98909         0.64906
   C       -2.70586         5.68968         1.92990
   C       -7.16093         8.76336        -3.76943
   C       -7.34807        10.02199        -3.36035
   C       -7.78922        11.07840        -4.21480
   S       -8.16609        10.84983        -5.89674
   C       -8.70807        12.49844        -6.11458
   C       -8.56471        13.20791        -4.91663
   C       -8.04970        12.38809        -3.87230
   S       -7.86827        13.25256        -2.38276
   C       -8.45456        14.71445        -3.15837
   C       -8.55400        15.98696        -2.42737
   O       -8.91155        16.99793        -2.98581
   C       -8.17880        15.92513        -0.96353
   C       -8.28491        17.28616        -0.29136
   C       -8.77946        14.53370        -4.47304
   C       -9.22365        12.85952        -7.37275
   C       -9.86426        14.02544        -7.67370
   C      -10.39213        14.26003        -8.95825
   C      -11.12308        15.36410        -9.30750
   C      -11.71323        15.64385       -10.60085
   C      -11.61299        14.88156       -11.73818
   C      -12.21714        15.21235       -12.96880
   N      -12.67865        15.41923       -13.99984
   C      -10.90281        13.66986       -11.85796
   N      -10.35111        12.67837       -12.03946
   C      -12.44904        16.89982       -10.49177
   C      -12.30417        17.39931        -9.16611
   C      -11.47180        16.47199        -8.38157
   O      -11.15163        16.59602        -7.21675
   C      -12.89020        18.56423        -8.76368
   C      -13.66831        19.29829        -9.68672
   C      -13.82002        18.80588       -11.01485
   C      -13.19744        17.59702       -11.40292
   C      -14.60151        19.54372       -11.92704
   C      -15.20556        20.71129       -11.54712
   C      -15.05526        21.19519       -10.23903
   C      -14.30250        20.50394        -9.32874
   H        0.49200        -1.58066        10.28557
   H        2.05696         0.93288         6.27034
   H        3.27405        -1.03167         5.52379
   H        3.96485        -3.37353         5.84555
   H        3.20790        -4.63110         7.82384
   H        1.75350        -3.55537         9.49567
   H       -2.10296         3.04844        10.49154
   H       -5.75789         6.21374        12.41221
   H       -6.87844         7.59213        12.53643
   H       -3.83470         7.80454        12.24604
   H       -4.75698         8.08791        13.72343
   H       -4.95548         9.16744        12.33956
   H       -5.48256         7.26932         7.87761
   H       -4.62150         6.58007         5.54290
   H       -2.30779         4.94194         4.38489
   H       -5.45061         6.86271         3.59671
   H       -8.22504         8.45405         0.96825
   H       -7.72549         6.74683         3.41057
   H       -8.21771         6.02570         1.86646
   H       -9.67089         8.19684         3.15356
   H      -10.13556         6.61587         3.15786
   H       -6.45457         9.90919         2.05402
   H       -6.52634         8.84323         3.46582
   H       -8.80344        10.34011         2.42101
   H       -8.02108        10.58501         3.84154
   H       -8.05602         8.23171        -1.21944
   H       -7.39823         6.77030        -3.18148
   H       -5.06232         7.14355        -4.19540
   H       -3.48775         6.53432        -2.41114
   H       -2.35836         5.74557        -0.16366
   H       -1.76908         5.20263         2.15818
   H       -7.29093         8.52078        -4.81616
   H       -7.19509        10.30172        -2.32596
   H       -7.15919        15.53656        -0.88778
   H       -8.83849        15.20197        -0.47526
   H       -7.61923        17.99582        -0.77590
   H       -8.01949        17.21400         0.76011
   H       -9.29953        17.66687        -0.37511
   H       -9.14981        15.34670        -5.07042
   H       -9.12833        12.10762        -8.14809
   H      -10.01426        14.78133        -6.92120
   H      -10.21277        13.49461        -9.70240
   H      -12.76302        18.91964        -7.75184
   H      -13.33347        17.25277       -12.41570
   H      -14.71406        19.16720       -12.93324
   H      -15.80295        21.26868       -12.25304
   H      -15.53916        22.11812        -9.95612
   H      -14.18305        20.87120        -8.31990
*
