# ORCA input file
# SCF done       -172.903027493075          0.000821305530
! CAM-B3LYP def2-SVP def2/J RIJCOSX Grid4 TightSCF
%maxcore 5000
%tddft
    Mode sTDDFT
    Ethresh 5.0
    maxcore 5000
end

%pal
  nprocs 6
  end
* xyz 0 1
   C        1.27673        -1.23852         0.75066
   S        1.22140         0.45496         0.98452
   C        2.44222         0.71022        -0.23306
   C        2.85188        -0.48709        -0.76926
   C        2.18059        -1.60060        -0.20049
   C        2.50829        -3.03073        -0.54271
   C        3.23638        -3.57987         0.58396
   N        3.82769        -3.98454         1.47409
   C        3.36465        -3.13112        -1.81294
   C        4.48341        -2.09480        -1.77552
   C        3.89106        -0.67802        -1.84170
   C        3.23712        -0.50427        -3.12515
   N        2.68466        -0.41109        -4.12095
   C        2.88981         2.06678        -0.49049
   C        3.33735         2.49046        -1.73811
   C        3.76797         3.79623        -1.92514
   N        4.33730         4.12554        -3.20717
   O        4.05600         3.41329        -4.14630
   O        5.10064         5.06777        -3.25847
   C        3.72854         4.75065        -0.89634
   C        3.27366         4.30574         0.35155
   C        2.87421         3.00611         0.55137
   C        4.04177         6.14472        -1.11294
   C        4.66392         6.92591        -0.20701
   C        4.88304         8.31529        -0.43458
   N        5.65926         9.11560         0.37284
   C        6.46097         8.68967         1.49225
   C        7.72801         7.96707         1.04054
   C        5.68469        10.45289        -0.07712
   O        6.31114        11.33525         0.47495
   C        4.83427        10.44365        -1.24152
   C        4.36085         9.12090        -1.43719
   C        3.49902         9.13936        -2.59601
   O        2.86792         8.26308        -3.15324
   N        3.51069        10.48128        -3.03002
   C        2.74733        10.85566        -4.19674
   C        1.35589        11.36512        -3.82936
   C        4.29502        11.26990        -2.22122
   C        4.57773        12.66465        -2.28525
   C        4.01153        13.62053        -3.05161
   C        4.38539        15.01019        -3.00704
   C        5.46887        15.52665        -2.34312
   S        5.61430        17.22387        -2.50882
   C        4.21108        17.28931        -3.47635
   C        3.65093        16.05587        -3.67421
   C        2.42977        15.86200        -4.46155
   O        1.89578        14.81056        -4.71719
   O        1.94177        17.05642        -4.88927
   C        0.77844        17.06156        -5.59987
   C        0.25607        18.21006        -6.03804
   C       -0.97402        18.30212        -6.76615
   S       -1.94629        16.89948        -7.10844
   C       -3.13322        17.86241        -7.88769
   C       -2.81076        19.18527        -7.88998
   C       -1.56661        19.44032        -7.26415
   C       -1.00532        20.83171        -7.13123
   C       -1.18615        21.25354        -5.75713
   N       -1.35109        21.57580        -4.67295
   C       -1.71428        21.81099        -8.07958
   C       -3.22797        21.65012        -7.98164
   C       -3.64370        20.27177        -8.51634
   C       -3.44246        20.21493        -9.95000
   N       -3.25459        20.17077       -11.07638
   H        0.64568        -1.87755         1.33619
   H        1.58569        -3.61240        -0.65747
   H        2.73326        -2.95815        -2.68759
   H        3.78476        -4.13602        -1.88873
   H        5.15861        -2.24366        -2.62019
   H        5.05836        -2.20169        -0.85223
   H        4.68468         0.07205        -1.74619
   H        3.33988         1.83434        -2.59495
   H        3.21040         5.01439         1.16275
   H        2.53385         2.69679         1.52863
   H        3.74043         6.57860        -2.05787
   H        5.04683         6.49974         0.71035
   H        5.86486         8.05283         2.15296
   H        6.72981         9.60183         2.03284
   H        7.48391         7.08707         0.44931
   H        8.30809         7.66030         1.90667
   H        8.33559         8.63248         0.43240
   H        2.64755         9.94549        -4.79641
   H        3.30448        11.59654        -4.77305
   H        0.78504        10.56873        -3.35806
   H        0.83609        11.68791        -4.72657
   H        1.41243        12.20598        -3.14253
   H        5.33743        12.94616        -1.56727
   H        3.20589        13.39903        -3.73047
   H        6.20108        14.99693        -1.76801
   H        3.86213        18.22883        -3.85536
   H        0.32443        16.09239        -5.76831
   H        0.76966        19.13513        -5.81821
   H       -4.00475        17.39714        -8.30383
   H        0.07120        20.82843        -7.34138
   H       -1.39117        21.61203        -9.10443
   H       -1.42850        22.83315        -7.82320
   H       -3.72570        22.43160        -8.55903
   H       -3.54233        21.74000        -6.93889
   H       -4.70753        20.08988        -8.32224
*
