# ORCA input file
# SCF done       -218.672259549460          0.000555539820
! CAM-B3LYP def2-SVP def2/J RIJCOSX Grid4 TightSCF
%maxcore 5000
%tddft
    Mode sTDDFT
    Ethresh 5.0
    maxcore 5000
end

%pal
  nprocs 6
  end
* xyz 0 1
   C        5.06356         6.27894         2.78328
   C        5.60597         5.08514         3.16847
   C        6.65892         4.95923         4.09925
   N        7.51017         4.80765         4.85335
   C        5.21124         3.84306         2.62609
   N        4.95187         2.82045         2.17503
   C        5.50984         7.60738         3.17525
   C        4.81287         8.57454         2.39126
   C        5.03729         9.91452         2.53800
   C        5.97941        10.35591         3.49271
   C        6.67302         9.39518         4.28533
   C        6.42406         8.01483         4.11042
   C        7.60419         9.84903         5.24124
   C        7.84120        11.18666         5.40717
   C        7.15907        12.13130         4.62566
   C        6.24838        11.72502         3.68838
   C        3.86706         7.89446         1.49919
   O        3.09458         8.40609         0.71217
   C        3.98711         6.44844         1.82025
   C        3.07127         5.53445         1.42473
   C        2.05819         5.81766         0.44919
   C        0.69537         5.80291         0.66220
   N        0.08776         5.49612         1.89048
   O        0.82570         5.28149         2.84191
   O       -1.12711         5.46420         1.93580
   C        0.01211         6.24424        -0.52741
   C        0.94789         6.57403        -1.45058
   C        2.26046         6.31212        -0.90587
   C        3.46895         6.34326        -1.57215
   C        4.58822         5.49316        -1.33765
   C        5.45525         5.61496        -2.38627
   C        4.96367         6.61245        -3.28583
   N        5.68869         7.06604        -4.40147
   O        5.29462         8.06140        -4.98660
   O        6.68463         6.43561        -4.71355
   C        3.75785         7.11624        -2.79761
   C        3.03129         8.23098        -3.24680
   C        2.29952         9.01422        -2.38836
   C        1.56192        10.13499        -2.79717
   N        1.01142        11.04514        -1.92388
   C        1.03707        10.96866        -0.48075
   C       -0.05144        10.03968         0.04885
   C        0.34406        12.07809        -2.58892
   O       -0.20231        13.00882        -2.02900
   C        0.49232        11.75542        -3.99691
   C        1.23772        10.56842        -4.09311
   C        1.34156        10.21234        -5.49578
   O        1.83953         9.26604        -6.06024
   N        0.65110        11.24678        -6.16431
   C        0.58301        11.28504        -7.60572
   C        1.58979        12.27083        -8.19268
   C        0.13807        12.16986        -5.29242
   C       -0.62938        13.28848        -5.67797
   C       -1.11102        14.18812        -4.77457
   C       -1.90897        15.30245        -5.10727
   S       -2.43154        15.64698        -6.73914
   C       -3.30080        17.05492        -6.22257
   C       -3.16962        17.23463        -4.83775
   C       -2.39435        16.25008        -4.22100
   C       -3.77319        18.30510        -4.15205
   N       -4.26306        19.17689        -3.59201
   C       -4.03677        17.87028        -7.10953
   C       -4.16314        17.61504        -8.44026
   C       -4.91875        18.44128        -9.30140
   C       -5.09751        18.20337       -10.63469
   C       -5.86314        19.00790       -11.57140
   C       -6.50794        20.18850       -11.30753
   C       -7.23383        20.92502       -12.26833
   N       -7.83956        21.57337       -12.99658
   C       -6.54312        20.84951       -10.06157
   N       -6.61778        21.45168        -9.08669
   C       -5.81948        18.34243       -12.86873
   C       -5.02953        17.16310       -12.75119
   C       -4.54313        17.03195       -11.37009
   O       -3.83896        16.14558       -10.93146
   C       -4.80932        16.33113       -13.81142
   C       -5.38101        16.64517       -15.06391
   C       -6.17347        17.82284       -15.19097
   C       -6.38328        18.66525       -14.07524
   C       -6.74029        18.12720       -16.44538
   C       -6.53554        17.30885       -17.52288
   C       -5.75554        16.14952       -17.39634
   C       -5.19031        15.82469       -16.19302
   H        4.50069        10.63233         1.93509
   H        6.95702         7.31037         4.72943
   H        8.12775         9.11835         5.83974
   H        8.55594        11.52439         6.14223
   H        7.35780        13.18240         4.77076
   H        5.71969        12.44810         3.08472
   H        3.02607         4.56264         1.90216
   H       -1.05626         6.29091        -0.61643
   H        0.76962         6.87922        -2.46335
   H        4.66229         4.78774        -0.53170
   H        6.37052         5.07494        -2.54168
   H        3.14359         8.51755        -4.28637
   H        2.35051         8.80984        -1.32902
   H        0.86534        11.98515        -0.11668
   H        2.01960        10.62660        -0.15018
   H       -1.03213        10.39497        -0.25835
   H       -0.01346        10.01570         1.13385
   H        0.09028         9.02807        -0.32397
   H       -0.43497        11.53348        -7.91807
   H        0.81995        10.27317        -7.94574
   H        1.40520        13.28063        -7.83250
   H        1.51601        12.26730        -9.27634
   H        2.59956        11.98112        -7.91283
   H       -0.84560        13.42467        -6.72901
   H       -0.88739        14.06215        -3.72207
   H       -2.18926        16.22022        -3.16567
   H       -4.52412        18.73420        -6.67238
   H       -3.67860        16.74700        -8.86642
   H       -5.38338        19.30930        -8.85169
   H       -4.20613        15.44308       -13.69393
   H       -6.98922        19.54738       -14.20634
   H       -7.33987        19.02073       -16.53827
   H       -6.97392        17.55048       -18.47941
   H       -5.60486        15.51525       -18.25696
   H       -4.58878        14.93353       -16.08931
*
