# ORCA input file
# SCF done       -178.156795510218          0.000497995079
! CAM-B3LYP def2-SVP def2/J RIJCOSX Grid4 TightSCF
%maxcore 5000
%tddft
    Mode sTDDFT
    Ethresh 5.0
    maxcore 5000
end

%pal
  nprocs 6
  end
* xyz 0 1
   C       -3.03657         6.64057         1.14252
   C       -3.31446         6.79828        -0.18767
   C       -3.37490         8.04234        -0.84777
   N       -3.37681         9.01226        -1.46140
   C       -3.56476         5.71149        -1.05080
   N       -3.76671         4.83795        -1.76740
   C       -2.98790         7.69753         2.13724
   C       -3.20808         7.11696         3.42378
   C       -3.26246         7.88927         4.54951
   C       -3.07152         9.28545         4.43834
   C       -2.81060         9.86157         3.15923
   C       -2.78104         9.04487         2.00697
   C       -2.58932        11.25054         3.06669
   C       -2.63960        12.03930         4.18406
   C       -2.91058        11.47584         5.44034
   C       -3.11964        10.12867         5.56591
   C       -3.32063         5.65379         3.29372
   O       -3.56976         4.83446         4.14173
   C       -2.96322         5.37630         1.86043
   C       -2.46905         4.17568         1.48295
   C       -1.72154         3.94864         0.26915
   C       -1.60659         2.76123        -0.37709
   C       -0.93165         2.69421        -1.64065
   C       -0.75707         1.49942        -2.31266
   C       -0.10850         1.44039        -3.55828
   N        0.42438         1.39979        -4.57462
   C       -1.20034         0.27542        -1.78274
   N       -1.55644        -0.72446        -1.34505
   C       -0.48612         3.94321        -2.18543
   C       -0.60599         5.07877        -1.45600
   O       -1.12411         5.07494        -0.19973
   C       -0.28751         6.41764        -1.87979
   S       -0.06160         6.86155        -3.53758
   C        0.06085         8.54509        -3.12552
   C       -0.06673         8.72507        -1.74900
   C       -0.26136         7.51808        -1.05595
   C       -0.10099         9.95050        -1.06161
   N       -0.16641        10.90236        -0.42482
   C        0.24826         9.50063        -4.15810
   C        0.53294        10.81203        -3.97157
   C        0.67714        11.71351        -5.05963
   O        0.41387        11.32171        -6.32134
   C        0.62322        12.36360        -7.15299
   C        1.04716        13.47053        -6.41515
   C        1.07660        13.05060        -5.05751
   C        1.44512        13.81368        -3.94054
   N        1.75308        14.43609        -3.02928
   C        1.36958        14.73810        -6.91931
   N        1.63303        15.77266        -7.33566
   C        0.37793        12.23569        -8.54440
   C       -0.12125        11.09341        -9.08218
   C       -0.41648        10.95725       -10.46055
   C       -0.97847         9.84328       -11.01029
   C       -1.34816         9.64657       -12.40336
   C       -1.03427        10.46367       -13.45713
   C       -1.41364        10.21068       -14.79317
   N       -1.69148        10.06575       -15.89718
   C       -0.27401        11.64987       -13.37727
   N        0.34352        12.61762       -13.39524
   C       -2.08767         8.39351       -12.49361
   C       -2.10917         7.78132       -11.20735
   C       -1.39818         8.63314       -10.24385
   O       -1.20490         8.39504        -9.06993
   C       -2.73135         6.58579       -10.98567
   C       -3.38092         5.93815       -12.05926
   C       -3.37155         6.54727       -13.34800
   C       -2.71392         7.78235       -13.54839
   C       -4.02945         5.89579       -14.41121
   C       -4.66577         4.70065       -14.21280
   C       -4.67312         4.10155       -12.94404
   C       -4.04395         4.70671       -11.89000
   H       -3.44411         7.44093         5.51493
   H       -2.57617         9.50246         1.05069
   H       -2.37782        11.67599         2.09712
   H       -2.47024        13.10234         4.10538
   H       -2.94886        12.11392         6.31033
   H       -3.32261         9.69028         6.53190
   H       -2.58269         3.34259         2.16344
   H       -2.06938         1.87545         0.02715
   H       -0.06913         3.97611        -3.17922
   H       -0.37138         7.46232         0.01275
   H        0.16209         9.12350        -5.16879
   H        0.67095        11.23262        -2.98655
   H        0.59113        13.10392        -9.15303
   H       -0.32404        10.25032        -8.43751
   H       -0.19904        11.81100       -11.08943
   H       -2.73035         6.14228       -10.00103
   H       -2.72827         8.21719       -14.53503
   H       -4.02034         6.36002       -15.38638
   H       -5.16732         4.20985       -15.03322
   H       -5.17995         3.15835       -12.80597
   H       -4.04610         4.25046       -10.91104
*
