# ORCA input file
# SCF done       -246.718348035208          0.000750622883
! CAM-B3LYP def2-SVP def2/J RIJCOSX Grid4 TightSCF
%maxcore 5000
%tddft
    Mode sTDDFT
    Ethresh 5.0
    maxcore 5000
end

%pal
  nprocs 6
  end
* xyz 0 1
   C        6.02868         7.07017        -3.07330
   C        5.04719         7.84105        -3.63285
   C        5.26614         9.07454        -4.27285
   N        5.40017        10.08883        -4.79303
   C        3.72259         7.37255        -3.71275
   N        2.68079         6.92021        -3.88251
   C        7.46395         7.19723        -3.25207
   C        8.06763         5.93528        -2.96640
   C        9.41431         5.74685        -3.09429
   C       10.22538         6.82618        -3.51117
   C        9.62656         8.09110        -3.78406
   C        8.22986         8.25870        -3.64989
   C       10.45220         9.15872        -4.19160
   C       11.80299         8.98825        -4.32649
   C       12.39123         7.74262        -4.06022
   C       11.61936         6.68529        -3.66182
   C        7.03687         4.97729        -2.52913
   O        7.15424         3.80428        -2.26744
   C        5.79536         5.80047        -2.40461
   C        4.78536         5.43660        -1.58799
   C        3.77969         6.28526        -1.00801
   C        3.95288         7.50931        -0.37583
   N        5.12471         8.25667        -0.17496
   O        5.03545         9.26252         0.50701
   O        6.17316         7.87859        -0.68168
   C        2.69817         7.94777         0.18876
   C        1.74048         7.07471        -0.18091
   C        2.34649         6.01453        -0.96300
   C        1.64930         5.03747        -1.64694
   C        2.05613         3.71216        -1.97319
   C        0.95262         2.98636        -2.32250
   C       -0.19093         3.84411        -2.33798
   N       -1.46558         3.41914        -2.73888
   O       -1.59942         2.24623        -3.04207
   O       -2.37736         4.23563        -2.75036
   C        0.21150         5.13884        -2.00014
   C       -0.50823         6.32785        -2.20308
   C        0.13117         7.52623        -2.40808
   C       -0.34923         8.82797        -2.60386
   N       -1.62691         9.32656        -2.71891
   C       -2.86990         8.58965        -2.68023
   C       -3.29729         8.27755        -1.24890
   C       -1.62689        10.71301        -2.90483
   O       -2.63785        11.38124        -3.03871
   C       -0.22734        11.09252        -2.88961
   C        0.52489         9.92435        -2.70547
   C        1.92810        10.29156        -2.63676
   O        2.93270         9.64084        -2.44220
   N        1.92565        11.68805        -2.81447
   C        3.15054        12.45436        -2.82997
   C        3.58792        12.80497        -4.24895
   C        0.65938        12.18308        -2.97036
   C        0.33931        13.53874        -3.18811
   C       -0.95542        13.90799        -3.39598
   C       -1.41230        15.21029        -3.67008
   S       -0.40714        16.61910        -3.55899
   C       -1.71414        17.66143        -4.01595
   C       -2.88772        16.93465        -4.21682
   C       -2.71137        15.55691        -4.04396
   C       -3.78372        14.55091        -4.30694
   N       -3.36548        13.55767        -5.35989
   O       -2.32411        13.74113        -5.93587
   O       -4.14458        12.66898        -5.57194
   C       -5.06300        15.21381        -4.83474
   C       -5.33319        16.50482        -4.07532
   C       -4.24637        17.53403        -4.41831
   N       -4.45560        18.67654        -3.47831
   O       -3.95255        18.58896        -2.38640
   O       -5.16260        19.57268        -3.85824
   C       -1.45465        19.05244        -4.14968
   C       -2.17397        19.90595        -4.92084
   C       -1.88160        21.28787        -5.00918
   C       -2.54652        22.14265        -5.83821
   C       -2.34098        23.57563        -5.96450
   C       -1.36871        24.32248        -5.35195
   C       -1.21470        25.71489        -5.52428
   N       -1.03141        26.84401        -5.61922
   C       -0.37075        23.82402        -4.48823
   N        0.47697        23.49546        -3.78675
   C       -3.34094        24.08695        -6.89412
   C       -4.12085        22.99551        -7.37365
   C       -3.64988        21.74637        -6.75933
   O       -4.06872        20.62794        -6.97855
   C       -5.12989        23.17039        -8.27696
   C       -5.41277        24.47031        -8.75096
   C       -4.64292        25.56915        -8.27044
   C       -3.60462        25.35729        -7.33507
   C       -4.93395        26.86290        -8.74903
   C       -5.93431        27.06300        -9.66094
   C       -6.69000        25.98016       -10.13507
   C       -6.43550        24.71153        -9.68917
   H        9.85800         4.78605        -2.87892
   H        7.79434         9.22597        -3.84870
   H        9.99466        10.11528        -4.39709
   H       12.42654         9.81242        -4.63923
   H       13.45883         7.62565        -4.17146
   H       12.06724         5.72435        -3.45485
   H        4.79397         4.40562        -1.24953
   H        2.60330         8.82867         0.79277
   H        0.70685         7.09477         0.10255
   H        3.04458         3.31728        -1.85133
   H        0.91235         1.94040        -2.56371
   H       -1.58028         6.22380        -2.29076
   H        1.20976         7.49535        -2.49078
   H       -2.76921         7.67724        -3.27104
   H       -3.61807         9.23194        -3.15360
   H       -2.52572         7.72142        -0.72177
   H       -4.20585         7.68295        -1.26214
   H       -3.49077         9.20020        -0.70676
   H        3.91087        11.82750        -2.35690
   H        3.01283        13.35638        -2.22694
   H        3.84739        11.90052        -4.79280
   H        4.46668        13.44197        -4.20943
   H        2.79798        13.32588        -4.78554
   H        1.13029        14.27363        -3.22385
   H       -1.71300        13.13720        -3.35663
   H       -3.99858        13.95305        -3.41363
   H       -5.89978        14.52374        -4.73095
   H       -4.94388        15.44401        -5.89685
   H       -5.31945        16.30948        -3.00004
   H       -6.31112        16.90463        -4.34560
   H       -4.40267        17.91649        -5.43249
   H       -0.57682        19.42130        -3.63371
   H       -2.98347        19.55031        -5.53691
   H       -1.10204        21.66542        -4.36108
   H       -5.70439        22.32527        -8.62606
   H       -3.04222        26.21057        -6.99114
   H       -4.34881        27.69315        -8.38186
   H       -6.14867        28.05738       -10.02262
   H       -7.47474        26.15640       -10.85533
   H       -7.01419        23.87407       -10.05038
*
