# ORCA input file
# SCF done       -171.823144120096          0.000833163906
! CAM-B3LYP def2-SVP def2/J RIJCOSX Grid4 TightSCF
%maxcore 5000
%tddft
    Mode sTDDFT
    Ethresh 5.0
    maxcore 5000
end

%pal
  nprocs 6
  end
* xyz 0 1
   C        2.81030         1.36676        -0.64631
   C        3.66732         1.78668        -1.62978
   C        4.56828         0.93506        -2.30338
   N        5.31974         0.29672        -2.89113
   C        3.81502         3.11691        -2.07656
   N        4.01024         4.17522        -2.47853
   C        2.74517         0.01548        -0.10589
   C        1.89397         0.02982         1.03433
   C        1.64225        -1.09638         1.76331
   C        2.23648        -2.31637         1.37073
   C        3.08249        -2.34193         0.22438
   C        3.32916        -1.15710        -0.50656
   C        3.66376        -3.56659        -0.16256
   C        3.42307        -4.71119         0.54759
   C        2.59080        -4.68446         1.67661
   C        2.01065        -3.51238         2.07982
   C        1.37232         1.39036         1.24737
   O        0.66123         1.74244         2.16516
   C        1.87704         2.19410         0.10486
   C        1.45383         3.42251        -0.31646
   C        0.58014         4.35534         0.28478
   S        0.05202         5.70336        -0.70668
   C       -0.89230         6.37419         0.57614
   C       -0.76992         5.58472         1.72855
   C        0.05132         4.46261         1.55545
   C       -1.38356         5.84498         2.96605
   N       -1.85874         6.01817         3.99684
   C       -1.65536         7.54850         0.33236
   C       -2.43550         8.15704         1.25456
   C       -3.27854         9.30631         1.05748
   C       -3.97170         9.86367         2.15505
   C       -3.80406         9.34419         3.54954
   C       -4.82080        10.92481         1.92193
   C       -5.05152        11.46192         0.64889
   C       -4.31409        10.94942        -0.43381
   C       -3.45457         9.89283        -0.20086
   C       -4.38480        11.52499        -1.81600
   C       -6.04535        12.51065         0.56756
   C       -6.86766        12.79210        -0.45814
   C       -7.87986        13.80091        -0.40889
   S       -8.14306        14.78667         1.00189
   C       -9.45309        15.61887         0.24259
   C      -10.28214        16.58125         0.99430
   O      -11.45784        16.72265         0.78327
   O       -9.66243        17.26444         1.96368
   C       -9.67204        15.15746        -1.04269
   C       -8.78268        14.11798        -1.39224
   C      -10.68161        15.65441        -1.94966
   C      -11.01082        16.94977        -2.13126
   C      -12.10608        17.46393        -2.94793
   C      -12.89401        16.74887        -3.80711
   C      -13.94500        17.30700        -4.56743
   N      -14.80622        17.69658        -5.21809
   C      -12.75465        15.37448        -4.09597
   N      -12.69120        14.26838        -4.39816
   C      -12.20676        18.89404        -2.69397
   C      -11.13321        19.28805        -1.84431
   C      -10.31687        18.11724        -1.50722
   O       -9.26939        18.11081        -0.89527
   C      -10.97293        20.58100        -1.43371
   C      -11.90109        21.55729        -1.85609
   C      -12.97958        21.17205        -2.70490
   C      -13.11761        19.82748        -3.11665
   C      -13.90075        22.15557        -3.12045
   C      -13.76573        23.45598        -2.71728
   C      -12.70467        23.83364        -1.88021
   C      -11.79248        22.90479        -1.45882
   H        0.99497        -1.05679         2.62687
   H        3.96919        -1.21065        -1.37285
   H        4.30509        -3.58197        -1.03156
   H        3.87306        -5.64417         0.24303
   H        2.41130        -5.59711         2.22493
   H        1.36865        -3.48535         2.94813
   H        1.80761         3.74206        -1.29041
   H        0.24563         3.74832         2.33473
   H       -1.57675         7.93454        -0.67447
   H       -2.45180         7.73440         2.24627
   H       -2.76063         9.38422         3.85843
   H       -4.13447         8.30891         3.62543
   H       -4.38983         9.93861         4.24583
   H       -5.36267        11.34860         2.75615
   H       -2.90162         9.49967        -1.04046
   H       -4.57113        12.59581        -1.78624
   H       -5.17907        11.04991        -2.39213
   H       -3.44840        11.34770        -2.34083
   H       -6.18153        13.07568         1.48402
   H       -6.84143        12.22635        -1.37638
   H       -8.70302        17.14411         1.95144
   H       -8.79710        13.63526        -2.35339
   H      -11.18670        14.88641        -2.52110
   H      -10.15184        20.85152        -0.78664
   H      -13.94813        19.56792        -3.75372
   H      -14.71609        21.86013        -3.76426
   H      -14.47659        24.20162        -3.04044
   H      -12.61448        24.86420        -1.57094
   H      -10.97406        23.18924        -0.81385
*
