# ORCA input file
# SCF done       -195.973623710242          0.000881405570
! CAM-B3LYP def2-SVP def2/J RIJCOSX Grid4 TightSCF
%maxcore 5000
%tddft
    Mode sTDDFT
    Ethresh 5.0
    maxcore 5000
end

%pal
  nprocs 6
  end
* xyz 0 1
   C        2.49989         0.57956         2.89159
   N        2.48366         1.83170         3.42459
   C        3.25577         2.27659         4.55681
   C        4.72611         2.47092         4.19582
   C        1.64178         2.69403         2.68948
   O        1.47166         3.86609         2.97815
   C        1.11631         1.85991         1.64106
   C        1.67765         0.55092         1.80174
   C        1.13924        -0.29640         0.75761
   O        1.30903        -1.46339         0.48155
   N        0.27731         0.55482         0.03883
   C       -0.42654         0.08695        -1.12935
   C        0.23891         0.55299        -2.42237
   C        0.25652         1.83504         0.55152
   C       -0.55008         2.87176         0.01577
   C       -0.53057         4.13237         0.51937
   C       -1.31727         5.21608         0.05645
   S       -1.11737         6.77164         0.80911
   C       -2.32740         7.48669        -0.19137
   C       -2.85191         6.56345        -1.09743
   C       -2.28671         5.26873        -0.94756
   O       -2.58008         4.14933        -1.63677
   C       -3.63818         4.15483        -2.57189
   C       -3.73103         6.95963        -2.12034
   N       -4.39750         7.29787        -2.99201
   C       -2.66856         8.86319        -0.04238
   S       -1.47489        10.01663         0.46910
   C       -2.60399        11.31772         0.35625
   C       -3.87304        10.85913         0.00871
   C       -3.91008         9.45901        -0.23405
   O       -4.97448         8.70925        -0.54157
   C       -6.11393         9.34130        -1.09925
   C       -4.98149        11.71753         0.05413
   N       -5.84354        12.47074         0.14590
   C       -2.18794        12.66531         0.59307
   S       -1.02854        12.98878         1.84057
   C       -1.02461        14.68808         1.47367
   C       -1.89331        14.96474         0.42383
   C       -2.53708        13.82267        -0.08545
   C       -3.36411        13.88996        -1.33338
   N       -3.11152        12.70183        -2.18784
   O       -4.07002        12.15322        -2.67186
   O       -1.96122        12.38207        -2.36148
   C       -2.95681        15.12326        -2.14619
   C       -3.12412        16.36127        -1.27743
   C       -2.15091        16.34874        -0.09829
   N       -2.75812        17.13370         1.03212
   O       -3.89634        16.88266         1.32646
   O       -2.04746        17.94001         1.57498
   C       -0.18224        15.58941         2.17390
   C        0.61324        15.23341         3.21516
   C        1.45060        16.17526         3.85742
   C        2.25766        15.90100         4.92257
   C        3.13521        16.83319         5.60808
   C        3.48607        18.08925         5.18640
   C        4.35713        18.94518         5.89309
   N        5.04781        19.69306         6.42371
   C        3.07582        18.69046         3.97775
   N        2.81132        19.23562         3.00223
   C        3.63918        16.16959         6.80478
   C        3.16250        14.82731         6.81672
   C        2.31441        14.59524         5.63541
   O        1.77196        13.55587         5.32437
   C        3.48591        13.95565         7.81642
   C        4.31235        14.39592         8.87416
   C        4.78711        15.73945         8.87395
   C        4.43824        16.61834         7.82319
   C        5.60782        16.16980         9.93638
   C        5.94510        15.31554        10.95066
   C        5.47743        13.99280        10.94965
   C        4.67880        13.54272         9.93352
   H        3.08878        -0.20231         3.33411
   H        3.15593         1.54929         5.36846
   H        2.81972         3.22861         4.87167
   H        5.16520         1.53561         3.85555
   H        5.27704         2.81972         5.06480
   H        4.82125         3.20869         3.40292
   H       -1.46851         0.41785        -1.08789
   H       -0.40080        -1.00539        -1.07684
   H        0.25593         1.63894        -2.48239
   H       -0.30455         0.16245        -3.27852
   H        1.26203         0.18759        -2.46418
   H       -1.19726         2.63560        -0.81259
   H        0.13054         4.35726         1.34692
   H       -3.75465         3.11722        -2.88220
   H       -3.40010         4.76985        -3.44265
   H       -4.56958         4.50779        -2.12255
   H       -6.69477         8.54017        -1.55189
   H       -5.82895        10.06184        -1.86907
   H       -6.70492         9.83727        -0.32538
   H       -4.43921        13.91164        -1.12004
   H       -3.58824        15.20514        -3.03178
   H       -1.91665        15.01730        -2.46441
   H       -4.14451        16.38065        -0.88521
   H       -2.96597        17.25992        -1.87432
   H       -1.20706        16.84782        -0.34039
   H       -0.17978        16.62242         1.85044
   H        0.62057        14.21304         3.57257
   H        1.42110        17.18501         3.46741
   H        3.11366        12.94202         7.80034
   H        4.81059        17.62990         7.85465
   H        5.96598        17.18881         9.93219
   H        6.57431        15.65457        11.75988
   H        5.75324        13.33243        11.75817
   H        4.31579        12.52536         9.92730
*
