# ORCA input file
# SCF done       -153.476696169084          0.000759857564
! CAM-B3LYP def2-SVP def2/J RIJCOSX Grid4 TightSCF
%maxcore 5000
%tddft
    Mode sTDDFT
    Ethresh 5.0
    maxcore 5000
end

%pal
  nprocs 6
  end
* xyz 0 1
   C       -2.28427         2.26368         3.21172
   N       -1.12659         2.70472         2.74860
   C       -0.62575         2.05300         1.70788
   C       -1.26955         0.97255         1.13344
   C       -2.49071         0.58506         1.70239
   N       -2.98680         1.25249         2.75314
   C       -3.24026        -0.53466         1.18400
   C       -4.41129        -0.92453         1.72781
   C       -5.20194        -2.02065         1.28851
   C       -4.97687        -2.90942         0.25146
   C       -5.98735        -3.86291         0.14529
   C       -6.99959        -3.70161         1.11266
   S       -6.69884        -2.37758         2.14267
   C       -7.97250        -4.71388         0.93009
   C       -7.57274        -5.51826        -0.15647
   C       -6.31605        -5.01028        -0.68336
   C       -5.59777        -5.50896        -1.73108
   C       -6.01526        -6.63921        -2.46469
   N       -6.34008        -7.55647        -3.07122
   C       -4.38440        -4.92549        -2.15073
   N       -3.39727        -4.45240        -2.49312
   C       -8.46102        -6.55148        -0.42077
   C       -9.54083        -6.54932         0.45329
   S       -9.44459        -5.23672         1.62173
   C      -10.64196        -7.44652         0.49352
   C      -10.81782        -8.53654        -0.39978
   C      -11.95564        -9.40300        -0.29519
   N      -12.09670       -10.43024        -1.15177
   C      -11.19599       -10.62738        -2.07277
   C      -10.08000        -9.77404        -2.17815
   N       -9.90774        -8.76923        -1.36552
   C      -12.97113        -9.24249         0.67896
   C      -12.79778        -8.15983         1.56633
   C      -11.65286        -7.28885         1.46503
   N      -11.67796        -6.33234         2.39572
   S      -12.99475        -6.50689         3.29973
   N      -13.60145        -7.79429         2.56737
   C      -14.07612       -10.12843         0.72893
   C      -15.14457       -10.08062         1.61630
   C      -16.05711       -11.10009         1.38293
   C      -15.68180       -11.93494         0.31127
   S      -14.20391       -11.45701        -0.41032
   C      -16.67714       -12.93405         0.16023
   C      -17.67750       -12.72822         1.13164
   C      -17.32063       -11.57061         1.93126
   C      -18.01954       -11.03379         2.97321
   C      -19.24241       -11.57859         3.41759
   N      -20.23746       -12.01334         3.78653
   C      -17.57071        -9.89742         3.67822
   N      -17.21951        -8.97418         4.26112
   C      -18.70473       -13.67017         1.05270
   C      -18.48147       -14.57446         0.03817
   S      -17.00129       -14.28033        -0.83742
   C      -19.30800       -15.68613        -0.35269
   N      -18.85815       -16.44114        -1.35818
   C      -19.61427       -17.46244        -1.71533
   C      -20.81677       -17.74787        -1.09039
   C      -21.20844       -16.89701        -0.04845
   N      -20.44278       -15.87016         0.31106
   C      -22.45942       -17.10573         0.66936
   C      -22.87006       -16.31377         1.65247
   H       -2.69849         2.79377         4.06078
   H        0.32241         2.41745         1.33299
   H       -0.85516         0.44763         0.28762
   H       -2.81113        -1.05011         0.33717
   H       -4.78215        -0.36120         2.57359
   H       -4.11645        -2.85904        -0.38968
   H       -8.36434        -7.28723        -1.19691
   H      -11.34883       -11.46445        -2.73875
   H       -9.32143        -9.91568        -2.93519
   H      -15.21883        -9.32686         2.37841
   H      -19.57275       -13.71776         1.68353
   H      -19.23586       -18.06660        -2.53037
   H      -21.42588       -18.58476        -1.39084
   H      -23.04487       -17.95673         0.34759
   H      -22.27419       -15.47103         1.95834
   H      -23.79801       -16.48223         2.17083
*
