# ORCA input file
# SCF done       -195.965785055675          0.000908496854
! CAM-B3LYP def2-SVP def2/J RIJCOSX Grid4 TightSCF
%maxcore 5000
%tddft
    Mode sTDDFT
    Ethresh 5.0
    maxcore 5000
end

%pal
  nprocs 6
  end
* xyz 0 1
   C        0.81116         4.72794         2.79010
   C        1.61278         4.03551         1.92110
   C        3.00444         3.87216         2.09067
   N        4.13570         3.69942         2.17795
   C        1.18659         3.41517         0.72723
   N        0.92109         2.90159        -0.26472
   C        1.26795         5.42077         3.99047
   C        0.17010         6.10857         4.56559
   C        0.27996         6.86063         5.71009
   C        1.53522         6.93398         6.32249
   C        2.62637         6.24120         5.74442
   C        2.51464         5.48447         4.58413
   S        4.08277         6.46208         6.66421
   C        3.21937         7.46623         7.79852
   C        1.90743         7.63100         7.50392
  Br        4.13086         8.20412         9.26135
   C       -1.03032         5.86320         3.75197
   O       -2.14380         6.31996         3.94866
   C       -0.61961         4.95432         2.67580
   C       -1.46098         4.35986         1.77261
   C       -2.84558         4.50718         1.58829
   C       -3.54625         3.74381         0.64658
   C       -4.89333         4.04904         0.61462
   C       -5.23064         5.07373         1.53006
   S       -3.90435         5.62904         2.44160
   C       -6.62261         5.31684         1.41531
   C       -7.16320         4.45435         0.44332
   C       -6.09438         3.62740        -0.09185
   C       -6.19743         2.65921        -1.04581
   C       -5.08294         1.90840        -1.47809
   N       -4.18210         1.29182        -1.82770
   C       -7.42551         2.33549        -1.66185
   N       -8.41883         2.06651        -2.16676
   C       -8.53573         4.62873         0.26908
   C       -9.03497         5.61855         1.09271
   S       -7.80048         6.34360         2.10120
   C      -10.40206         6.05076         1.15282
   C      -10.83643         7.13258         1.93771
   N      -12.08936         7.51608         1.96950
   C      -12.97258         6.83659         1.22146
   C      -12.53847         5.75347         0.43800
   N      -11.28540         5.37226         0.40377
   C      -14.33750         7.27743         1.26267
   C      -14.81280         8.39416         1.92164
   C      -16.18880         8.54803         1.75402
   C      -16.75773         7.53149         0.96484
   S      -15.60126         6.40047         0.42570
   C      -18.15087         7.77126         0.84641
   C      -18.45891         8.94535         1.56094
   C      -17.23767         9.47640         2.14427
   C      -17.11415        10.62658         2.86597
   C      -15.87792        11.07083         3.38151
   N      -14.87755        11.43051         3.80977
   C      -18.23185        11.44555         3.13431
   N      -19.15143        12.09717         3.34537
   C      -19.80138         9.29138         1.47832
   C      -20.52705         8.39594         0.70627
   S      -19.51907         7.08576         0.10480
   C      -21.90839         8.40135         0.40792
   C      -22.78693         9.43905         0.46559
   C      -22.62729        10.87558         0.56886
   C      -21.58342        11.62459         0.09104
   C      -21.56079        13.03561         0.09788
   N      -21.49725        14.18093         0.07342
   C      -20.45448        11.08570        -0.55569
   N      -19.52920        10.69769        -1.11416
   C      -23.90568        11.41981         1.01464
   C      -24.88577        10.39671         0.95089
   C      -24.24702         9.13800         0.52421
   O      -24.76990         8.06952         0.30967
   C      -26.20407        10.61893         1.26833
   C      -26.56845        11.90585         1.67814
   C      -25.57758        12.91490         1.75711
   C      -24.24568        12.69309         1.42923
   S      -26.24373        14.42421         2.29827
   C      -27.82361        13.69388         2.40376
   C      -27.85245        12.38522         2.05528
  Br      -29.28423        14.72634         2.96508
   H       -0.57532         7.37331         6.12145
   H        3.37574         4.97426         4.18656
   H        1.22923         8.21890         8.09494
   H       -1.02078         3.64262         1.09016
   H       -3.06050         3.00752         0.03087
   H       -9.16564         4.08599        -0.41130
   H      -10.14650         7.69867         2.55012
   H      -13.22778         5.18889        -0.17661
   H      -14.16397         9.04183         2.48196
   H      -20.25124        10.12652         1.98354
   H      -22.35104         7.44191         0.15736
   H      -26.93207         9.82575         1.20229
   H      -23.52291        13.48768         1.51333
   H      -28.74160        11.78171         2.06321
*
