# ORCA input file
# SCF done       -230.946448158827          0.000997968211
! CAM-B3LYP def2-SVP def2/J RIJCOSX Grid4 TightSCF
%maxcore 5000
%tddft
    Mode sTDDFT
    Ethresh 5.0
    maxcore 5000
end

%pal
  nprocs 6
  end
* xyz 0 1
   C      -10.65300        -4.43676        12.51206
   C      -11.91473        -4.00022        12.22042
   F      -12.75495        -3.65970        13.20703
   C      -12.34785        -3.90181        10.88319
   F      -13.59069        -3.47046        10.62559
   C      -11.51302        -4.24146         9.85575
   C      -10.20673        -4.69456        10.12360
   C       -9.76711        -4.79292        11.47542
   C       -8.45848        -5.24055        11.76785
   C       -7.61717        -5.57533        10.74013
   C       -8.06551        -5.48168         9.39309
   C       -9.32426        -5.05612         9.08086
   C       -6.98706        -5.91573         8.47980
   O       -7.06793        -6.00444         7.27202
   C       -5.86206        -6.31171         9.35949
   C       -6.23679        -6.04657        10.73361
   C       -5.40710        -6.11860        11.82138
   C       -4.03554        -6.44672        11.76156
   N       -2.90950        -6.66796        11.79360
   C       -5.80816        -5.81694        13.13910
   N       -6.08393        -5.58854        14.22986
   C       -4.76553        -7.01790         8.95737
   C       -4.31268        -7.17510         7.61850
   C       -4.39605        -6.16439         6.63826
   O       -4.73078        -4.94016         7.07751
   C       -4.34745        -3.78033         6.36458
   C       -4.08109        -6.45762         5.28767
   O       -4.40153        -5.55530         4.29128
   C       -5.79272        -5.54746         3.98541
   C       -3.50675        -7.66724         4.89429
   C       -3.18847        -8.60008         5.91698
   C       -3.64735        -8.37414         7.25526
   N       -3.34137        -9.38610         8.06387
   S       -2.50721       -10.48271         7.22517
   N       -2.50587        -9.73499         5.80893
   C       -3.26454        -7.95727         3.52109
   C       -3.03504        -9.21506         2.95166
   C       -2.70015        -9.13611         1.55170
   N       -2.25115       -10.21404         0.91843
   C       -2.27980       -11.36588         1.54307
   C       -1.82222       -12.55819         0.79617
   O       -1.44984       -12.50755        -0.35985
   C       -1.94987       -13.83065         1.52681
   C       -2.48157       -13.93426         2.74991
   C       -2.94492       -12.78247         3.54414
   O       -3.30934       -12.89617         4.69677
   C       -2.83190       -11.47204         2.86238
   N       -3.17143       -10.40234         3.53790
   C       -2.79192        -7.83137         1.04094
   S       -3.18435        -6.72622         2.30863
   C       -2.51495        -7.42935        -0.29416
   C       -2.21465        -6.08953        -0.60514
   O       -2.42751        -5.24455         0.42701
   C       -1.99245        -3.90077         0.44906
   C       -1.71707        -5.73220        -1.88301
   O       -1.46227        -4.41082        -2.10982
   C       -1.93242        -3.82508        -3.31868
   C       -1.48731        -6.69160        -2.88010
   C       -1.92756        -8.01647        -2.62760
   C       -2.47784        -8.37061        -1.35339
   N       -2.89072        -9.63425        -1.32441
   S       -2.53536       -10.33931        -2.71372
   N       -1.88169        -9.05983        -3.45472
   C       -0.71735        -6.36433        -4.04369
   C       -0.71163        -6.94212        -5.27110
   C        0.47479        -6.76172        -6.15511
   O        1.35808        -5.94674        -6.02335
   C        0.34847        -7.81216        -7.18539
   C        1.23660        -8.17266        -8.15717
   C        0.91205        -9.24299        -9.02087
   C       -0.33110        -9.92159        -8.85846
   C       -0.64393       -10.99191        -9.72055
   C        0.23361       -11.36910       -10.69797
   C        1.46206       -10.69700       -10.85762
   C        1.79527        -9.65586       -10.03731
   F        2.30388       -11.08908       -11.82355
   F       -0.06678       -12.38557       -11.51700
   C       -1.23488        -9.52068        -7.84800
   C       -0.90106        -8.47819        -7.02544
   C       -1.62799        -7.84589        -5.93131
   C       -2.97691        -7.92524        -5.70905
   C       -3.63651        -7.08144        -4.79653
   N       -4.19025        -6.35794        -4.09695
   C       -3.84374        -8.78735        -6.40803
   N       -4.58805        -9.47443        -6.94777
   H      -10.33632        -4.50522        13.54107
   H      -11.86093        -4.16156         8.83775
   H       -8.15614        -5.31347        12.80010
   H       -9.64377        -4.99384         8.05160
   H       -4.20986        -7.59203         9.68893
   H       -4.28747        -2.99172         7.11564
   H       -5.09081        -3.50206         5.61515
   H       -3.37551        -3.90496         5.88380
   H       -6.07699        -6.47160         3.47309
   H       -5.95295        -4.69967         3.32232
   H       -6.39912        -5.44759         4.88918
   H       -1.60225       -14.70376         0.99089
   H       -2.57680       -14.89420         3.23959
   H       -2.59233        -3.27669        -0.21541
   H       -0.93936        -3.81168         0.18059
   H       -2.14150        -3.58082         1.48053
   H       -2.37699        -2.86651        -3.04312
   H       -2.68871        -4.45027        -3.79464
   H       -1.10944        -3.64499        -4.01216
   H        0.06308        -5.62492        -3.88687
   H        2.17575        -7.65153        -8.26478
   H       -1.58082       -11.51589        -9.61370
   H        2.73963        -9.15206       -10.17197
   H       -2.16538       -10.05470        -7.73894
*
