# ORCA input file
# SCF done       -260.854052518051          0.000726956503
! CAM-B3LYP def2-SVP def2/J RIJCOSX Grid4 TightSCF
%maxcore 5000
%tddft
    Mode sTDDFT
    Ethresh 5.0
    maxcore 5000
end

%pal
  nprocs 6
  end
* xyz 0 1
   C      -10.76424         2.79730         2.49408
   C      -11.50850         3.29677         3.52572
   F      -12.17352         4.44905         3.37973
   C      -11.58621         2.60780         4.75337
   F      -12.32325         3.12075         5.74603
   C      -10.91794         1.42872         4.93225
   C      -10.14109         0.88911         3.88899
   C      -10.06195         1.58486         2.64741
   C       -9.28523         1.06559         1.58700
   C       -8.61110        -0.11445         1.76300
   C       -8.70365        -0.80812         3.00277
   C       -9.43896        -0.32709         4.04673
   C       -7.90525        -2.04877         2.92871
   O       -7.60470        -2.77656         3.84681
   C       -7.47455        -2.15133         1.50841
   C       -7.73631        -0.87256         0.87341
   C       -7.20672        -0.40157        -0.30153
   C       -6.21000        -1.01599        -1.07933
   N       -5.35590        -1.38303        -1.75754
   C       -7.53184         0.85756        -0.85517
   N       -7.76627         1.86174        -1.35782
   C       -6.96884        -3.24939         0.87807
   C       -6.88683        -4.59083         1.36613
   C       -7.78229        -5.05770         2.43509
   C       -7.27690        -5.81226         3.49259
   C       -8.11961        -6.32600         4.45513
   C       -9.48982        -6.09095         4.37475
   C       -9.99707        -5.31586         3.33339
   C       -9.15192        -4.80397         2.37377
   C      -10.43379        -6.64598         5.36859
   O      -11.62549        -6.45820         5.35777
   O       -9.83942        -7.40296         6.30229
   C       -6.00347        -5.47011         0.77851
   C       -4.98294        -4.96582        -0.13666
   C       -4.27851        -3.79821         0.16325
   C       -3.47192        -3.20835        -0.78645
   C       -3.34268        -3.78789        -2.04464
   C       -3.95499        -5.00744        -2.31307
   C       -4.77325        -5.59067        -1.36832
   C       -2.59810        -3.06511        -3.12838
   O       -1.73216        -3.56760        -3.78965
   O       -2.99628        -1.80477        -3.30376
   C       -6.02936        -6.89938         1.01501
   C       -4.82487        -7.61824         1.17527
   C       -4.81046        -9.03720         1.37917
   N       -3.62732        -9.68960         1.45690
   C       -2.52916        -8.99683         1.39887
   C       -2.54770        -7.58499         1.29534
   N       -3.66188        -6.92681         1.18229
   C       -6.00082        -9.79449         1.44888
   C       -7.19769        -9.07901         1.28228
   C       -7.21224        -7.65245         1.05275
   N       -8.45918        -7.19965         0.86700
   S       -9.48583        -8.41557         1.02746
   N       -8.43628        -9.58013         1.29920
   C       -5.95935       -11.21906         1.71682
   C       -4.90053       -11.67047         2.63612
   C       -4.06625       -12.73713         2.29990
   C       -3.15630       -13.22411         3.21070
   C       -3.03972       -12.64736         4.47574
   C       -3.83197       -11.54683         4.79558
   C       -4.75254       -11.06658         3.88419
   C       -2.12330       -13.30104         5.45037
   O       -1.81526       -14.46044         5.36473
   O       -1.66674       -12.54607         6.46141
   C       -6.82460       -12.11336         1.14469
   C       -7.67400       -11.75041        -0.00102
   C       -7.16375       -11.00176        -1.06247
   C       -7.97225       -10.66446        -2.12582
   C       -9.30205       -11.08276        -2.15610
   C       -9.80488       -11.86284        -1.11759
   C       -8.99282       -12.19981        -0.05455
   C      -10.13973       -10.67656        -3.30598
   O       -9.77600        -9.93764        -4.18707
   O      -11.37196       -11.20480        -3.28073
   C       -6.85946       -13.51318         1.48909
   C       -6.69416       -14.12643         2.68553
   C       -6.25504       -15.55653         2.70354
   O       -6.37791       -16.36161         1.81339
   C       -5.56603       -15.71275         3.99809
   C       -4.77751       -16.74027         4.43109
   C       -4.15659       -16.64496         5.69578
   C       -4.39400       -15.49844         6.50867
   C       -3.76227       -15.40450         7.76417
   C       -2.92141       -16.39479         8.18655
   C       -2.68404       -17.52615         7.38016
   C       -3.29332       -17.65319         6.16364
   F       -1.86018       -18.48327         7.82268
   F       -2.32022       -16.30327         9.37787
   C       -5.22672       -14.45806         6.04174
   C       -5.78567       -14.55215         4.79482
   C       -6.60581       -13.61654         4.03892
   C       -7.28800       -12.54373         4.54167
   C       -8.24160       -11.80930         3.80672
   N       -9.07834       -11.21920         3.28879
   C       -7.16254       -12.08794         5.86943
   N       -7.06018       -11.65036         6.92556
   H      -10.71375         3.33783         1.56178
   H      -10.98817         0.91371         5.87747
   H       -9.25036         1.61274         0.65897
   H       -9.48825        -0.87011         4.97815
   H       -6.64261        -3.11426        -0.14775
   H       -6.21159        -5.97826         3.56232
   H       -7.72832        -6.90927         5.27396
   H      -11.06082        -5.13599         3.29429
   H       -9.55053        -4.22392         1.55441
   H      -10.50287        -7.74359         6.92239
   H       -4.37424        -3.35917         1.14509
   H       -2.94661        -2.29238        -0.55765
   H       -3.81452        -5.46462        -3.28059
   H       -5.30232        -6.50463        -1.59660
   H       -3.78027        -1.58038        -2.75900
   H       -1.60192        -9.55111         1.44392
   H       -1.63672        -7.00318         1.30716
   H       -4.14320       -13.18274         1.31990
   H       -2.52452       -14.06534         2.97034
   H       -3.78357       -11.08290         5.77220
   H       -5.38471       -10.23080         4.15050
   H       -1.94082       -11.62165         6.39330
   H       -6.12840       -10.69257        -1.04879
   H       -7.59558       -10.07903        -2.95107
   H      -10.83023       -12.19508        -1.15066
   H       -9.38574       -12.78072         0.76551
   H      -11.87216       -10.90964        -4.05758
   H       -6.98633       -14.18964         0.64735
   H       -4.61587       -17.60778         3.80952
   H       -3.92812       -14.54324         8.39243
   H       -3.09744       -18.52367         5.55746
   H       -5.37945       -13.59336         6.66823
*
