# ORCA input file
# SCF done       -196.270896017097          0.000403482042
! CAM-B3LYP def2-SVP def2/J RIJCOSX Grid4 TightSCF
%maxcore 5000
%tddft
    Mode sTDDFT
    Ethresh 5.0
    maxcore 5000
end

%pal
  nprocs 6
  end
* xyz 0 1
   C       -3.57636         0.67882         1.93834
   C       -3.28085         1.49495         3.00220
   C       -2.66584         1.04947         4.18745
   N       -2.13044         0.74060         5.15540
   C       -3.62734         2.85811         3.04123
   N       -3.91818         3.96739         3.09850
   C       -3.52536        -0.78089         1.95000
   C       -4.30171        -1.26783         0.85814
   C       -4.47308        -2.60343         0.63746
   C       -3.85431        -3.53075         1.50666
   C       -3.06345        -3.05114         2.58988
   C       -2.91164        -1.66005         2.79952
   C       -2.44652        -3.98607         3.44509
   C       -2.60488        -5.33054         3.24445
   C       -3.38562        -5.80179         2.17890
   C       -3.99695        -4.92073         1.32852
   C       -4.81958        -0.12508         0.08467
   O       -5.55182        -0.14655        -0.87904
   C       -4.20505         1.08237         0.70806
   C       -4.26150         2.26153         0.02118
   C       -3.50871         3.44561         0.13148
   C       -2.24779         3.68259         0.69666
   O       -1.59073         2.66232         1.27115
   C       -0.36884         2.89548         1.95062
   C       -1.81304         5.02017         0.52499
   O       -0.56230         5.41598         0.90483
   C        0.23075         6.04627        -0.07935
   C       -2.76131         5.81285        -0.11601
   S       -4.10829         4.87374        -0.66006
   C       -2.78815         7.22845        -0.32675
   C       -2.22401         8.15728         0.57787
   C       -2.25567         9.57844         0.33070
   N       -1.83639        10.42412         1.28263
   C       -1.31407         9.94977         2.38305
   C       -1.20867         8.53289         2.59536
   N       -1.69083         7.69346         1.71954
   C       -0.59109         8.03210         3.76901
   N       -0.05996         7.67398         4.71845
   C       -0.86445        10.86492         3.36717
   N       -0.46875        11.59390         4.15737
   C       -2.79866        10.12089        -0.85788
   C       -3.47064         9.20343        -1.68953
   C       -3.47347         7.78555        -1.42331
   N       -4.15084         7.11098        -2.35516
   S       -4.72719         8.14624        -3.43497
   N       -4.14045         9.49408        -2.80611
   C       -2.73504        11.50457        -1.19249
   C       -1.71801        12.41737        -0.86496
   O       -0.57588        11.96432        -0.31787
   C        0.45638        12.87328         0.01068
   C       -2.03824        13.71137        -1.30215
   O       -1.26275        14.82505        -1.11357
   C       -1.65372        15.66201        -0.03148
   C       -3.25358        13.77601        -2.01639
   S       -4.00933        12.21862        -2.11866
   C       -3.69938        14.98007        -2.58593
   C       -4.80320        15.23149        -3.35679
   C       -5.17988        16.52073        -3.90543
   C       -4.66141        17.74446        -3.56698
   C       -5.07979        18.96369        -4.13981
   N       -5.36966        19.98740        -4.57104
   C       -3.68575        17.97029        -2.57426
   N       -2.92148        18.23700        -1.75898
   C       -6.27952        16.29640        -4.83841
   C       -6.63023        14.91587        -4.79999
   C       -5.74465        14.21882        -3.85537
   O       -5.77874        13.03577        -3.56538
   C       -7.64192        14.40503        -5.56018
   C       -8.36269        15.26841        -6.41574
   C       -8.01475        16.64906        -6.46583
   C       -6.96266        17.14935        -5.66350
   C       -8.73826        17.50035        -7.32503
   C       -9.75790        17.01359        -8.09748
   C      -10.09993        15.65430        -8.04687
   C       -9.41705        14.80012        -7.22366
   H       -5.07369        -2.95061        -0.19021
   H       -2.30447        -1.32510         3.62605
   H       -1.84861        -3.61877         4.26635
   H       -2.12962        -6.03847         3.90694
   H       -3.50049        -6.86579         2.03506
   H       -4.59956        -5.27746         0.50593
   H       -4.98241         2.26091        -0.79274
   H        0.44211         3.09812         1.24840
   H       -0.16025         1.97176         2.49012
   H       -0.45767         3.72456         2.65389
   H        0.36465         5.39483        -0.95036
   H        1.19451         6.22428         0.39464
   H       -0.18739         6.99849        -0.41516
   H        0.17577        13.49739         0.86266
   H        0.72199        13.50664        -0.83730
   H        1.30625        12.25262         0.29149
   H       -2.70495        15.95101        -0.10045
   H       -1.03156        16.55059        -0.10622
   H       -1.48286        15.16536         0.92943
   H       -3.02790        15.81118        -2.40341
   H       -7.88975        13.35521        -5.50932
   H       -6.72213        18.19858        -5.72773
   H       -8.47220        18.54659        -7.35987
   H      -10.30674        17.67420        -8.75170
   H      -10.90694        15.28701        -8.66301
   H       -9.67593        13.75226        -7.18026
*
