# ORCA input file
# SCF done       -219.994395193573          0.000715519330
! CAM-B3LYP def2-SVP def2/J RIJCOSX Grid4 TightSCF
%maxcore 5000
%tddft
    Mode sTDDFT
    Ethresh 5.0
    maxcore 5000
end

%pal
  nprocs 6
  end
* xyz 0 1
   C       -3.60340        -2.34381         0.56676
   C       -2.96025        -2.43804        -0.64010
   C       -2.02576        -3.44648        -0.95895
   N       -1.25961        -4.23724        -1.28391
   C       -3.08954        -1.54573        -1.72595
   N       -3.11680        -0.86808        -2.65327
   C       -3.37779        -3.22272         1.70604
   C       -4.09833        -2.71544         2.81484
   C       -4.08136        -3.31798         4.05005
   C       -3.32018        -4.48068         4.19810
   C       -2.60831        -4.98504         3.08293
   C       -2.62306        -4.37351         1.83490
   S       -1.74270        -6.43196         3.49267
   C       -2.32628        -6.34984         5.11875
   C       -3.13328        -5.29195         5.35248
   C       -4.82506        -1.49870         2.41941
   O       -5.51266        -0.82098         3.15898
   C       -4.56009        -1.32178         0.97159
   C       -5.16533        -0.46981         0.08980
   C       -6.06814         0.59506         0.30136
   C       -6.48126         1.23933         1.44079
   C       -7.37954         2.29505         1.21326
   C       -7.65053         2.49124        -0.17514
   S       -6.79147         1.31744        -1.13176
   C       -8.44605         3.52832        -0.63389
   S       -8.82618         3.87010        -2.32382
   C       -9.03715         2.23073        -3.08136
   C       -8.94443         4.43208         0.32443
   C       -8.68356         4.22542         1.70169
   C       -7.94556         3.15545         2.17241
   S       -7.71384         2.98018         3.91086
   C       -8.08537         1.21508         4.19754
   S       -9.41734         5.45417         2.68789
   C      -10.06439         6.24099         1.26100
   C       -9.73552         5.58099         0.10822
   C      -10.82088         7.43616         1.39648
   C      -11.10261         8.12052         2.56193
   C      -11.85672         9.27050         2.32328
   C      -12.15333         9.45701         0.96330
   S      -11.50273         8.22191        -0.02009
   C      -12.91171        10.64967         0.82490
   C      -13.08707        11.21655         2.09697
   C      -12.43161        10.37007         3.08137
   C      -12.36625        10.57252         4.42836
   C      -11.70361         9.67715         5.29453
   N      -11.16899         8.95357         6.00510
   C      -12.95490        11.69641         5.04568
   N      -13.42693        12.61268         5.54828
   C      -13.82060        12.40328         2.06634
   C      -14.20426        12.74025         0.78381
   S      -13.65156        11.57318        -0.40745
   C      -14.95492        13.87875         0.38552
   C      -15.36985        14.23219        -0.86601
   C      -16.10752        15.43682        -0.90439
   C      -16.23589        16.03222         0.37991
   S      -15.45770        15.04189         1.59092
   C      -16.91549        17.22304         0.56631
   S      -17.19295        18.07261         2.08480
   C      -15.78784        17.65114         3.15460
   C      -17.52527        17.79173        -0.57170
   C      -17.42449        17.18097        -1.85014
   C      -16.69539        16.01962        -2.04229
   S      -16.50487        15.15842        -3.57122
   C      -16.36334        16.47638        -4.81522
   S      -18.34259        18.07688        -3.02737
   C      -18.86492        19.23350        -1.82173
   C      -18.32712        18.94828        -0.59424
   C      -19.68188        20.32381        -2.21233
   C      -20.45121        21.12895        -1.43384
   C      -20.90094        21.04125        -0.05858
   C      -21.16696        19.89517         0.64395
   C      -21.69901        19.87992         1.94948
   N      -22.11868        19.81594         3.01575
   C      -21.02826        18.59696         0.11253
   N      -20.97714        17.52298        -0.28928
   C      -21.28187        22.38709         0.35546
   C      -21.30875        23.22593        -0.78898
   C      -20.87650        22.45505        -1.96800
   O      -20.82182        22.81927        -3.12023
   C      -21.67583        24.54867        -0.72263
   C      -22.01849        25.06997         0.52865
   C      -21.97107        24.22839         1.66639
   C      -21.60962        22.88785         1.60010
   S      -22.42003        25.08932         3.10422
   C      -22.66855        26.53639         2.18964
   C      -22.42615        26.39090         0.86884
   H       -4.63887        -2.90323         4.87563
   H       -2.06670        -4.80016         1.01739
   H       -2.02392        -7.11198         5.81040
   H       -3.58807        -5.07972         6.30311
   H       -4.94583        -0.63381        -0.95890
   H       -6.10853         0.97559         2.41041
   H       -9.68618         2.39081        -3.93703
   H       -9.51466         1.56460        -2.37112
   H       -8.08263         1.83243        -3.41047
   H       -8.59958         1.17500         5.15301
   H       -7.17658         0.62410         4.24244
   H       -8.73720         0.85998         3.40727
   H      -10.04018         5.90926        -0.86952
   H      -10.76404         7.78618         3.52618
   H      -14.07120        13.00197         2.92367
   H      -15.16569        13.64549        -1.74372
   H      -15.77141        18.42672         3.91476
   H      -14.86941        17.67581         2.57843
   H      -15.93437        16.68209         3.62047
   H      -15.82424        16.03061        -5.64573
   H      -15.79512        17.30245        -4.40202
   H      -17.34491        16.80318        -5.14313
   H      -18.46820        19.56611         0.27432
   H      -19.64141        20.60038        -3.26161
   H      -21.69740        25.16218        -1.60989
   H      -21.58093        22.28553         2.49315
   H      -22.98549        27.42093         2.70713
   H      -22.52735        27.18124         0.14728
*
