# ORCA input file
# SCF done       -196.050512573390          0.000476087341
! CAM-B3LYP def2-SVP def2/J RIJCOSX Grid4 TightSCF
%maxcore 5000
%tddft
    Mode sTDDFT
    Ethresh 5.0
    maxcore 5000
end

%pal
  nprocs 6
  end
* xyz 0 1
   C        2.06222         4.88409        -0.28394
   C        1.28013         5.92797         0.12503
   F       -0.05936         5.80701         0.08582
   C        1.82013         7.13473         0.59061
   C        3.17900         7.27600         0.63876
   C        4.03322         6.23120         0.23013
   C        3.46443         5.01233        -0.24213
   C        4.30027         3.95224        -0.66374
   C        5.65965         4.10556        -0.60963
   C        6.22160         5.32058        -0.12144
   C        5.43877         6.36291         0.28393
   C        7.69245         5.20984        -0.12156
   O        8.50308         6.05781         0.17247
   C        7.97922         3.79698        -0.50759
   C        6.74683         3.20880        -0.98988
   C        6.62581         2.12472        -1.81632
   C        7.71224         1.40735        -2.35218
   N        8.54611         0.79910        -2.85572
   C        5.39317         1.61648        -2.27400
   N        4.41952         1.13964        -2.65182
   C        9.21363         3.29235        -0.26704
   C        9.67369         1.93222        -0.21756
   C        8.85133         0.86077         0.19154
   O        7.55968         1.14019         0.55433
   C        7.11871         0.65927         1.81481
   C        9.36086        -0.44249         0.19313
   O        8.54263        -1.51269         0.50610
   C        7.61490        -1.84768        -0.50968
   C       10.69558        -0.68475        -0.14930
   C       11.51821         0.39214        -0.48227
   C       11.01610         1.66882        -0.51642
   C       11.22384        -2.05783        -0.14190
   C       11.96494        -2.54301        -1.23116
   O       12.16971        -1.73797        -2.34140
   C       11.02387        -1.51802        -3.14378
   C       12.50429        -3.83655        -1.18423
   O       13.32947        -4.41308        -2.09329
   C       13.63056        -3.80018        -3.32613
   C       12.24232        -4.64213        -0.06004
   C       11.51127        -4.14481         1.00622
   C       11.00934        -2.86097         0.97123
   C       12.73004        -6.03017        -0.01685
   C       12.34919        -6.93742        -1.02549
   O       11.53176        -6.43839        -1.98505
   C       10.68061        -7.29447        -2.71623
   C       12.80451        -8.25549        -0.95598
   O       12.54449        -9.15481        -1.98636
   C       13.58832        -9.21684        -2.93595
   C       13.57077        -8.68803         0.14360
   C       13.94535        -7.76682         1.11982
   C       13.52214        -6.45834         1.03711
   C       13.99715       -10.06200         0.27188
   C       13.32268       -11.18059        -0.07594
   C       14.04586       -12.47707        -0.20911
   O       15.15006       -12.73759         0.21012
   C       13.15549       -13.33209        -1.01767
   C       13.39058       -14.57868        -1.52299
   C       12.39659       -15.20338        -2.30837
   C       11.17519       -14.51439        -2.56584
   C       10.19295       -15.13881        -3.35966
   C       10.42858       -16.38913        -3.85901
   C       11.62057       -17.08475        -3.61322
   C       12.58595       -16.49253        -2.84787
   F        9.49127       -16.98738        -4.61665
   C       10.95533       -13.22737        -2.02335
   C       11.92690       -12.64812        -1.25185
   C       11.95859       -11.37689        -0.53720
   C       10.86591       -10.63436        -0.18826
   C       10.89310        -9.56210         0.72824
   N       10.82497        -8.72974         1.51568
   C        9.56292       -10.88655        -0.66332
   N        8.48953       -11.02629        -1.04565
   H        1.61167         3.97070        -0.63978
   H        1.15305         7.92352         0.90024
   H        3.61853         8.19597         0.99382
   H        3.84302         3.03868        -1.00952
   H        5.88620         7.27709         0.64448
   H        9.96208         4.04032        -0.01936
   H        6.06843         0.93903         1.88026
   H        7.67793         1.14676         2.61944
   H        7.22160        -0.42194         1.90880
   H        8.13105        -2.10087        -1.44045
   H        6.91053        -1.03338        -0.70607
   H        7.07483        -2.71845        -0.14331
   H       12.54998         0.20319        -0.73194
   H       11.65052         2.49236        -0.80697
   H       10.26393        -0.92718        -2.62690
   H       10.58422        -2.46795        -3.46903
   H       11.37232        -0.96252        -4.01237
   H       14.09089        -2.81952        -3.19287
   H       12.74397        -3.70299        -3.95758
   H       14.33933        -4.47428        -3.80868
   H       11.32189        -4.78507         1.85385
   H       10.45005        -2.46824         1.80452
   H        9.90326        -6.64712        -3.12364
   H       10.22131        -8.04967        -2.07432
   H       11.20017        -7.79045        -3.53965
   H       13.77660        -8.23668        -3.38717
   H       13.26185        -9.91898        -3.70185
   H       14.51592        -9.57996        -2.47874
   H       14.53566        -8.10100         1.95887
   H       13.80452        -5.74729         1.79823
   H       14.99784       -10.21976         0.66258
   H       14.32466       -15.08312        -1.32542
   H        9.26161       -14.63466        -3.56537
   H       11.74938       -18.06992        -4.03264
   H       13.51242       -17.00836        -2.64485
   H       10.02525       -12.72532        -2.23795
*
