# ORCA input file
# SCF done       -187.704494929776          0.000564178318
! CAM-B3LYP def2-SVP def2/J RIJCOSX Grid4 TightSCF
%maxcore 5000
%tddft
    Mode sTDDFT
    Ethresh 5.0
    maxcore 5000
end

%pal
  nprocs 6
  end
* xyz 0 1
   C       -0.10800        -1.77739        -1.31639
   C       -1.39492        -1.47982        -1.66860
   F       -2.29935        -2.47114        -1.77246
   C       -1.81931        -0.17003        -1.93027
   C       -0.91506         0.85043        -1.82970
   C        0.42482         0.60039        -1.46952
   C        0.83675        -0.73835        -1.20719
   C        2.17431        -1.01469        -0.83885
   C        3.07162         0.01437        -0.73648
   C        2.65422         1.34836        -1.01156
   C        1.36998         1.64503        -1.36532
   C        3.80718         2.25481        -0.86836
   O        3.83259         3.45801        -1.00916
   C        4.96514         1.37765        -0.55598
   C        4.48307         0.03219        -0.34894
   C        5.15404        -1.01874         0.22138
   C        6.41870        -0.94803         0.83625
   N        7.40951        -0.98131         1.41554
   C        4.61687        -2.31602         0.35854
   N        4.24988        -3.39681         0.48409
   C        6.21871         1.91130        -0.64914
   C        7.44103         1.28568        -0.63858
   C        8.56308         0.80780        -0.67731
   C        9.82383         0.25860        -0.69961
   S       11.21936         1.23789        -1.08697
   C       12.26624        -0.13702        -0.88170
   C       11.55305        -1.27219        -0.53250
   C       10.18642        -1.05062        -0.42921
   C       13.63275        -0.01453        -1.05597
   C       14.82986         0.13014        -1.20994
   C       16.19867         0.29012        -1.37772
   C       16.76146         1.50138        -1.60398
   C       18.12537         1.69622        -1.77042
   C       19.32039         1.86262        -1.91653
   C       20.67178         2.10889        -2.08329
   S       21.26121         3.74362        -2.24707
   C       22.89861         3.16077        -2.40163
   C       22.95197         1.78300        -2.32832
   C       21.70288         1.19297        -2.14792
   C       23.94837         4.04595        -2.57462
   C       24.83843         4.85983        -2.72429
   C       25.86738         5.77535        -2.89864
   C       27.15362         5.41420        -3.12034
   C       28.17205         6.34052        -3.30125
   C       29.07520         7.13658        -3.46803
   C       30.09157         8.05516        -3.66148
   S       29.80368         9.76493        -3.49585
   C       31.47053        10.10495        -3.89146
   C       32.17879         8.94016        -4.13174
   C       31.40710         7.79181        -4.00088
   C       31.94305        11.39944        -3.94054
   C       32.34519        12.54847        -3.98445
   C       32.83356        13.83730        -4.05623
   C       32.09155        14.94152        -3.76268
   C       32.63665        16.23849        -3.83802
   C       32.01254        17.43557        -3.62794
   C       32.83708        18.64095        -3.35252
   O       34.02974        18.75855        -3.52759
   C       31.90511        19.62599        -2.77043
   C       32.17412        20.85615        -2.24456
   C       31.11705        21.61931        -1.69996
   C       29.79609        21.08445        -1.70637
   C       28.74848        21.84554        -1.15231
   C       29.01970        23.07753        -0.62560
   C       30.31093        23.62193        -0.61231
   C       31.33981        22.89588        -1.14463
   F       28.01965        23.80630        -0.09579
   C       29.54566        19.80947        -2.26620
   C       30.58382        19.09362        -2.79752
   C       30.62252        17.79194        -3.46372
   C       29.53733        17.15771        -4.01308
   C       29.61860        16.06894        -4.90583
   N       29.62642        15.22243        -5.68130
   C       28.20726        17.59325        -3.84388
   N       27.10478        17.88912        -3.71965
   H        0.18286        -2.79758        -1.12010
   H       -2.84774         0.00384        -2.20452
   H       -1.21780         1.86794        -2.02634
   H        2.45432        -2.03907        -0.65284
   H        1.07852         2.66560        -1.56372
   H        6.24466         2.98514        -0.82351
   H       12.03065        -2.21958        -0.35729
   H        9.46225        -1.79364        -0.14769
   H       16.81232        -0.59963        -1.31555
   H       16.13893         2.38630        -1.65921
   H       23.87516         1.23634        -2.40377
   H       21.53922         0.13297        -2.06767
   H       25.59538         6.82288        -2.85607
   H       27.42843         4.36787        -3.16969
   H       33.22235         8.94533        -4.39169
   H       31.77469         6.79187        -4.14737
   H       33.86065        13.94885        -4.38449
   H       31.06981        14.80981        -3.43836
   H       33.70800        16.31136        -4.00100
   H       33.18223        21.24288        -2.24234
   H       27.74105        21.45958        -1.14865
   H       30.46446        24.59941        -0.18326
   H       32.34354        23.29365        -1.14586
   H       28.53707        19.42785        -2.25105
*
