# ORCA input file
# SCF done       -229.367863343011          0.000308135555
! CAM-B3LYP def2-SVP def2/J RIJCOSX Grid4 TightSCF
%maxcore 5000
%tddft
    Mode sTDDFT
    Ethresh 5.0
    maxcore 5000
end

%pal
  nprocs 6
  end
* xyz 0 1
   C       -0.32527         1.54205        -1.37973
   C        0.98839         1.28150        -1.01964
   C        1.32665         0.12925        -0.32324
   C        0.35840        -0.79450         0.03974
   C       -0.95649        -0.54667        -0.31720
   C       -1.30346         0.62296        -1.03283
   C       -2.73861         0.61695        -1.28422
   C       -3.47289         1.64023        -1.81617
   C       -2.92789         2.87896        -2.21791
   N       -2.54817         3.90511        -2.56358
   C       -4.87337         1.62272        -1.99256
   N       -6.00831         1.67585        -2.15685
   C       -3.22882        -0.69181        -0.85600
   C       -2.17274        -1.29237        -0.04382
   C       -2.35826        -2.18800         0.97309
   C       -3.63733        -2.59347         1.41582
   N       -4.66406        -2.88195         1.83915
   C       -1.31108        -2.75072         1.72960
   N       -0.49161        -3.26804         2.34452
   C       -4.38006        -1.26965        -1.29944
   C       -4.73312        -2.64504        -1.27375
   C       -6.00411        -3.14069        -1.41916
   C       -6.08352        -4.54909        -1.36470
   C       -7.23046        -5.37003        -1.44307
   C       -8.54584        -4.83967        -1.72295
   C       -9.75141        -5.26380        -1.23505
   C      -10.84036        -4.54756        -1.77166
   C      -10.49430        -3.58875        -2.68234
   S       -8.77833        -3.54795        -2.87353
   C      -11.37820        -2.65545        -3.42368
  Cl      -12.46879        -4.86681        -1.31994
   C       -7.02753        -6.73563        -1.25097
   C       -5.75175        -7.30653        -1.00870
   C       -4.59786        -6.49278        -0.98709
   C       -4.80688        -5.13445        -1.16319
   S       -3.55018        -3.93518        -1.15694
   C       -3.27841        -7.04275        -0.75207
   C       -2.72812        -8.18955        -1.25099
   C       -1.42075        -8.41576        -0.77153
   C       -0.96310        -7.46335         0.09423
   S       -2.16192        -6.24140         0.32292
   C        0.35240        -7.39255         0.77894
  Cl       -0.48032        -9.78152        -1.23620
   C       -5.83031        -8.69767        -0.78844
   C       -7.10015        -9.20032        -0.89809
   S       -8.26834        -7.95875        -1.27471
   C       -7.52792       -10.55554        -0.71416
   C       -6.68645       -11.59800        -0.36081
   C       -7.13491       -12.90537        -0.15464
   C       -8.45869       -13.29551        -0.28472
   C       -9.35885       -12.26226        -0.66644
   C       -8.89271       -10.91442        -0.87351
   N       -9.93943       -10.18659        -1.20567
   O      -10.98062       -11.00943        -1.20847
   N      -10.65880       -12.25785        -0.88775
   C       -8.91323       -14.62627        -0.03642
   C      -10.20529       -15.10893        -0.15205
   C      -10.29174       -16.45326         0.20596
   C       -9.05301       -16.99723         0.59654
   S       -7.78778       -15.85825         0.51413
   C       -9.24080       -18.35111         0.96167
   C      -10.60733       -18.66574         0.80370
   C      -11.30631       -17.49033         0.30872
   C      -12.62798       -17.40942        -0.01568
   C      -13.22437       -16.22736        -0.50502
   N      -13.72079       -15.27300        -0.89979
   C      -13.48083       -18.52579         0.12166
   N      -14.15685       -19.44368         0.24586
   C      -10.90047       -19.97962         1.13600
   C       -9.77287       -20.68400         1.54068
   S       -8.33299       -19.67014         1.53232
   C       -9.65466       -22.01014         2.00817
   C      -10.53182       -23.04591         1.84478
   C      -10.55802       -24.23022         2.70013
   C       -9.56328       -24.68314         3.52398
   C       -8.28632       -24.10007         3.66827
   N       -7.22881       -23.68386         3.83304
   C       -9.66622       -25.84277         4.32283
   N       -9.67943       -26.77177         4.99633
   C      -11.86143       -24.85294         2.51250
   C      -12.53754       -24.19069         1.46282
   C      -13.81942       -24.56611         1.09727
   C      -14.42043       -25.61266         1.78057
   C      -13.75371       -26.27424         2.80241
   C      -12.47172       -25.90338         3.18007
   C      -11.65845       -23.16467         0.92438
   C      -11.74440       -22.63598        -0.33507
   C      -12.79942       -22.91037        -1.23236
   N      -13.62337       -23.10221        -2.00689
   C      -10.74722       -21.83872        -0.93238
   N       -9.95026       -21.21626        -1.47587
   H       -0.56837         2.44041        -1.92301
   H        1.75891         1.98745        -1.28920
   H        2.35750        -0.05222        -0.06011
   H        0.62932        -1.68964         0.57611
   H       -5.10195        -0.63995        -1.80345
   H       -6.85767        -2.49320        -1.50182
   H       -9.86886        -6.02923        -0.49139
   H      -12.37065        -3.08928        -3.52371
   H      -10.97319        -2.44463        -4.41078
   H      -11.47081        -1.71040        -2.88645
   H       -3.20988        -8.82625        -1.97004
   H        0.55515        -8.32502         1.30487
   H        0.36470        -6.57029         1.48926
   H        1.15011        -7.24041         0.05107
   H       -4.97469        -9.29438        -0.53455
   H       -5.63485       -11.40179        -0.22553
   H       -6.40579       -13.65075         0.12909
   H      -11.02065       -14.48824        -0.47717
   H      -11.88840       -20.40286         1.13428
   H       -8.78561       -22.18982         2.62715
   H      -14.34997       -24.05069         0.31326
   H      -15.42188       -25.91308         1.51353
   H      -14.24029       -27.08765         3.31848
   H      -11.97388       -26.42297         3.98205
*
