# ORCA input file
# SCF done       -125.134874680221          0.000849227197
! CAM-B3LYP def2-SVP def2/J RIJCOSX Grid4 TightSCF
%maxcore 5000
%tddft
    Mode sTDDFT
    Ethresh 5.0
    maxcore 5000
end

%pal
  nprocs 6
  end
* xyz 0 1
   C        0.53166         0.25167         3.53853
   N        0.97116         0.01210         2.31787
   N        0.78179        -1.13389         1.75630
   C        0.13468        -2.11090         2.39782
   C       -0.36276        -1.92953         3.69997
   C       -0.15558        -0.70362         4.28927
   C       -0.01744        -3.34838         1.67643
   C        0.44950        -3.61850         0.40937
   C        0.13296        -4.91800         0.00301
   C       -0.58187        -5.63179         0.97908
   S       -0.86266        -4.71357         2.38575
   C       -0.85926        -6.93244         0.48151
   C       -0.31862        -7.04014        -0.80837
   C        0.32217        -5.77779        -1.15350
   C        0.95796        -5.47563        -2.32107
   C        1.06780        -6.40968        -3.37318
   N        1.15545        -7.16873        -4.22810
   C        1.54800        -4.21666        -2.56473
   N        2.03226        -3.20051        -2.78026
   C       -0.54140        -8.29008        -1.38715
   C       -1.24777        -9.12989        -0.54665
   S       -1.64227        -8.36454         0.98500
   C       -1.65797       -10.46406        -0.80107
   C       -2.37251       -11.30199         0.03461
   C       -2.60537       -12.54708        -0.55075
   C       -2.06181       -12.65347        -1.83976
   S       -1.26446       -11.22612        -2.33452
   C       -2.35445       -13.94613        -2.34698
   C       -3.08398       -14.65716        -1.37859
   C       -3.26518       -13.80253        -0.21686
   C       -3.91470       -14.10133         0.94428
   C       -4.52629       -15.35226         1.17438
   N       -5.02740       -16.36290         1.37757
   C       -4.01919       -13.17175         2.00068
   N       -4.10527       -12.41656         2.85918
   C       -3.42137       -15.94651        -1.79784
   C       -2.95469       -16.21332        -3.06696
   S       -2.08335       -14.85544        -3.76074
   C       -3.12489       -17.43443        -3.80586
   N       -3.81670       -18.40324        -3.19502
   N       -4.02748       -19.53114        -3.77553
   C       -3.56863       -19.77644        -4.99942
   C       -2.82925       -18.81936        -5.71524
   C       -2.60104       -17.61459        -5.10021
   C       -3.86734       -21.08903        -5.57396
   N       -3.39310       -21.33064        -6.79226
   N       -3.61247       -22.46353        -7.37677
   C       -4.31293       -23.40589        -6.77487
   C       -4.84945       -23.24510        -5.49634
   C       -4.61960       -22.04060        -4.86852
   H        0.73903         1.23926         3.92322
   H       -0.88390        -2.72956         4.20564
   H       -0.50647        -0.48540         5.28636
   H        0.98870        -2.88515        -0.16135
   H       -0.21403        -8.58789        -2.36706
   H       -2.70002       -11.00529         1.01485
   H       -3.97569       -16.67454        -1.23471
   H       -2.47129       -19.05464        -6.70443
   H       -2.04183       -16.82388        -5.57957
   H       -4.44502       -24.31701        -7.34052
   H       -5.41822       -24.03371        -5.02746
   H       -4.98576       -21.80593        -3.88188
*
