# ORCA input file
# SCF done       -199.772927585562          0.000737159748
! CAM-B3LYP def2-SVP def2/J RIJCOSX Grid4 TightSCF
%maxcore 5000
%tddft
    Mode sTDDFT
    Ethresh 5.0
    maxcore 5000
end

%pal
  nprocs 6
  end
* xyz 0 1
   C       -3.49888         1.18178         1.72617
   C       -2.58784         0.24225         2.04975
   C       -1.25997         0.60245         1.67541
   C       -0.07913        -0.14576         1.83661
   C       -0.11029        -1.49173         2.37569
   C       -0.98967        -2.49300         2.08217
   C       -0.72208        -3.67932         2.80021
   C        0.34665        -3.59982         3.64401
   S        1.05915        -2.02412         3.55225
   C        0.90159        -4.64033         4.54596
  Cl       -1.67878        -5.10041         2.61251
   C        1.10282         0.46550         1.43720
   C        1.15041         1.75284         0.84637
   C       -0.03703         2.48283         0.63781
   C       -1.21504         1.88604         1.08264
   S       -2.81342         2.57112         0.95933
   C       -0.05202         3.77207        -0.02236
   C       -0.83592         4.85454         0.25859
   C       -0.62501         5.93009        -0.63122
   C        0.30227         5.68923        -1.60242
   S        0.94618         4.09369        -1.41819
   C        0.76410         6.57990        -2.69676
  Cl       -1.47605         7.42036        -0.48742
   C        2.47485         2.14276         0.54163
   C        3.41420         1.19568         0.84342
   S        2.69096        -0.24209         1.54066
   C        4.81670         1.26107         0.63980
   S        5.78976        -0.17510         0.74432
   C        7.26197         0.66601         0.33064
   C        6.98453         2.00726         0.14429
   C        5.61293         2.35780         0.31473
   C        5.40477         3.74516         0.12733
   C        6.55581         4.40441        -0.18237
   C        6.72786         5.83429        -0.44460
   O        7.77975         6.36406        -0.69807
   O        5.55678         6.49256        -0.36686
   C        5.62571         7.89178        -0.60124
   S        7.96911         3.37702        -0.26016
   C        8.49432        -0.02073         0.20435
   C        9.73183         0.51697        -0.10679
   C       10.71923        -0.46585        -0.17706
   C       10.23289        -1.75665         0.08130
   S        8.55903        -1.76308         0.41772
   C       11.30568        -2.68153        -0.03023
   C       12.47178        -1.96688        -0.35839
   C       12.14689        -0.55606        -0.45803
   C       12.99687         0.46864        -0.75493
   C       12.56700         1.81051        -0.82767
   N       12.23013         2.90490        -0.88553
   C       14.36794         0.25600        -1.01169
   N       15.48456         0.09449        -1.21691
   C       13.58615        -2.79799        -0.50224
   C       13.26199        -4.11729        -0.28649
   S       11.57824        -4.36100         0.09972
   C       14.13579        -5.26031        -0.35159
   N       13.58563        -6.45346        -0.11366
   C       14.39473        -7.49748        -0.17871
   C       15.73969        -7.37757        -0.47511
   C       16.22904        -6.08192        -0.71051
   N       15.40796        -5.03136        -0.64442
   C       17.61588        -5.84085        -1.02355
   C       18.08398        -4.59480        -1.24371
   C       19.42581        -4.21258        -1.55132
   C       20.48349        -5.07377        -1.68998
   C       21.79476        -4.69353        -1.98804
   C       22.12333        -3.28397        -2.27552
   C       21.23909        -2.26562        -2.18427
   S       19.60103        -2.46727        -1.73469
   C       23.49271        -3.28578        -2.64105
   C       23.98867        -4.59202        -2.58453
   C       25.35783        -4.65626        -2.93176
   C       25.85309        -3.43024        -3.23838
   S       24.69156        -2.14806        -3.11776
   C       22.94276        -5.47399        -2.15829
   C       23.13548        -6.88731        -1.96136
   C       22.46554        -7.67120        -1.11860
   H       -4.55720         1.16200         1.89807
   H       -2.83167        -0.67265         2.55682
   H       -1.77390        -2.41111         1.35247
   H        0.32547        -5.55691         4.44686
   H        0.86384        -4.30913         5.58330
   H        1.94212        -4.84628         4.29766
   H       -1.51568         4.90906         1.08804
   H        0.35147         7.57593        -2.55729
   H        0.43867         6.19849        -3.66482
   H        1.85137         6.64036        -2.70932
   H        2.72290         3.08513         0.09637
   H        4.46577         4.25480         0.22664
   H        4.63671         8.28503        -0.38050
   H        5.89395         8.08879        -1.64135
   H        6.37648         8.34876         0.04638
   H        9.89015         1.56658        -0.27201
   H       14.58299        -2.48478        -0.75027
   H       13.93642        -8.45917         0.01560
   H       16.38766        -8.23756        -0.52399
   H       18.25215        -6.71257        -1.06888
   H       17.36568        -3.78790        -1.17434
   H       20.27819        -6.12859        -1.58527
   H       21.51480        -1.24197        -2.38528
   H       25.94612        -5.55588        -2.95415
   H       26.85301        -3.18052        -3.53577
   H       23.94363        -7.31451        -2.54392
   H       21.70399        -7.29271        -0.45905
   H       22.68856        -8.72125        -1.03647
*
