# ORCA input file
# SCF done       -240.299677662187          0.000364149145
! CAM-B3LYP def2-SVP def2/J RIJCOSX Grid4 TightSCF
%maxcore 5000
%tddft
    Mode sTDDFT
    Ethresh 5.0
    maxcore 5000
end

%pal
  nprocs 6
  end
* xyz 0 1
   C        2.71657        -6.45160        -4.12104
   C        3.82753        -5.83017        -4.56630
   C        4.15987        -4.67105        -3.80592
   C        5.23098        -3.77884        -3.99908
   C        6.15752        -3.88715        -5.10879
   C        7.50022        -3.63954        -5.10647
   C        8.08187        -3.76840        -6.38652
   C        7.20390        -4.09899        -7.37682
   S        5.61163        -4.27050        -6.71974
   C        7.46316        -4.30516        -8.82393
  Cl        9.76439        -3.52129        -6.65700
   C        5.34624        -2.74217        -3.07713
   C        4.42627        -2.53593        -2.02098
   C        3.33098        -3.40447        -1.85049
   C        3.24682        -4.47066        -2.74259
   S        1.99951        -5.68669        -2.74876
   C        2.32337        -3.18711        -0.83352
   C        1.67396        -4.11812        -0.07318
   C        0.71447        -3.54480         0.78800
   C        0.60480        -2.18696         0.69188
   S        1.71614        -1.58761        -0.48782
   C       -0.30024        -1.27062         1.42958
  Cl       -0.23272        -4.48909         1.87161
   C        4.76566        -1.40914        -1.23374
   C        5.86924        -0.74079        -1.67770
   S        6.57508        -1.50745        -3.08848
   C        6.47272         0.43488        -1.14297
   S        8.12517         0.80972        -1.51142
   C        8.07310         2.27003        -0.57487
   C        6.81277         2.44286        -0.01636
   C        5.91331         1.41051        -0.32828
   S        4.23061         1.32416         0.17891
   C        3.80766         2.78191         1.08186
   O        2.66533         2.87226         1.43994
   C        4.79198         3.86915         1.45488
   O        4.42265         4.79849         2.11768
   S        6.49429         3.85140         0.98829
   C        9.19348         3.12615        -0.41601
   C       10.43815         2.83781        -0.85339
   C       11.59597         3.66259        -0.66724
   C       11.57182         4.98516        -0.25198
   C       12.74081         5.71388        -0.04665
   F       12.59462         6.98768         0.36790
   C       14.02339         5.20345        -0.19200
   C       14.08052         3.86808        -0.66004
   C       12.88360         3.11111        -0.90662
   N       13.15679         1.88983        -1.36114
   S       14.74770         1.71824        -1.48005
   N       15.17868         3.17606        -0.96151
   C       15.21267         5.96138         0.10968
   S       15.33440         7.63949        -0.30654
   C       16.91726         7.76338         0.38608
   C       17.31040         6.54419         0.92120
   C       16.35675         5.52528         0.75505
   S       16.46214         3.89886         1.41589
   C       17.84408         3.83782         2.51663
   O       17.91055         2.88993         3.25096
   C       18.98568         4.83216         2.48602
   O       20.01518         4.56803         3.04487
   S       18.90205         6.38288         1.65030
   C       17.66461         8.97055         0.40328
   C       17.31999        10.09722        -0.25646
   C       18.07167        11.30740        -0.20198
   C       19.03113        11.67467         0.69902
   C       19.58765        12.95288         0.45738
   C       20.59182        13.61632         1.19051
   C       21.23874        13.02412         2.34347
   C       21.62355        13.64687         3.49671
   C       22.27084        12.77664         4.39982
   C       22.40218        11.49323         3.95523
   S       21.70308        11.34236         2.37970
   C       23.03247        10.33189         4.63134
  Cl       22.84051        13.30672         5.93581
   C       20.94958        14.88495         0.74016
   C       20.38817        15.49231        -0.40847
   C       19.39444        14.82533        -1.14704
   C       19.00202        13.57682        -0.67303
   S       17.79115        12.55741        -1.39700
   C       18.81979        15.37066        -2.36185
   C       17.52035        15.31434        -2.77512
   C       17.32782        15.88689        -4.05166
   C       18.46310        16.37034        -4.63268
   S       19.81405        16.12871        -3.57732
   C       18.63065        17.02188        -5.95626
  Cl       15.77840        15.95802        -4.80006
   C       20.94926        16.78139        -0.64606
   C       21.89684        17.11697         0.25225
   S       22.16833        15.90646         1.45441
   H        2.25888        -7.33947        -4.51112
   H        4.40463        -6.18148        -5.40087
   H        8.07185        -3.40908        -4.22697
   H        8.52536        -4.19067        -9.02480
   H        6.91060        -3.57926        -9.42006
   H        7.14832        -5.30114        -9.13327
   H        1.89029        -5.16993        -0.08980
   H       -0.60771        -1.73037         2.36622
   H       -1.19437        -1.06028         0.84110
   H        0.19681        -0.32516         1.63616
   H        4.23372        -1.13699        -0.34354
   H        8.99499         4.03966         0.12762
   H       10.62264         1.89145        -1.34483
   H       10.63714         5.49227        -0.07531
   H       18.57727         8.93948         0.98229
   H       16.44082        10.09741        -0.88770
   H       19.30822        11.05730         1.53202
   H       21.42455        14.67781         3.72187
   H       23.22332        10.57465         5.67386
   H       23.97897        10.07698         4.15372
   H       22.38551         9.45784         4.57909
   H       16.71609        14.91389        -2.18676
   H       17.66592        17.09579        -6.45184
   H       19.30814        16.44471        -6.58507
   H       19.04897        18.02150        -5.84298
   H       20.64485        17.42469        -1.45017
   H       22.46635        18.02431         0.30066
*
