# ORCA input file
# SCF done       -174.644221709781          0.000477276463
! CAM-B3LYP def2-SVP def2/J RIJCOSX Grid4 TightSCF
%maxcore 5000
%tddft
    Mode sTDDFT
    Ethresh 5.0
    maxcore 5000
end

%pal
  nprocs 6
  end
* xyz 0 1
   C        3.29471        -2.43070        -9.11600
   S        1.74450        -1.97670        -9.64629
   C        1.92422        -0.44359        -8.85905
   N        0.88000         0.49965        -8.94165
   O        1.04199         1.56131        -8.37528
   O       -0.10641         0.17553        -9.57153
   C        3.12101        -0.31118        -8.21046
   C        3.92799        -1.46535        -8.35965
   C        5.25014        -1.55894        -7.78110
   C        6.43795        -1.94619        -8.35951
   N        6.67060        -2.44517        -9.65614
   O        5.72216        -2.84217       -10.31241
   O        7.82203        -2.44425       -10.05074
   C        7.53069        -1.65518        -7.45327
   C        7.02966        -1.06551        -6.34640
   C        5.59337        -1.00049        -6.46700
   C        4.69842        -0.65570        -5.47769
   C        3.37004        -1.16122        -5.31506
   C        2.92106        -0.80503        -4.08256
   C        3.91249        -0.00256        -3.42327
   N        3.64963         0.51819        -2.14408
   O        4.56985         0.97084        -1.47753
   O        2.49808         0.46776        -1.75175
   C        5.01343         0.14996        -4.27305
   C        6.11595         1.02395        -4.28933
   C        6.65077         1.74318        -3.25220
   C        7.75425         2.59365        -3.44207
   N        8.36289         3.28781        -2.42533
   C        8.00376         3.24630        -1.02544
   C        8.53796         1.99149        -0.34130
   C        9.45582         4.03849        -2.87505
   O       10.14794         4.72965        -2.15649
   C        9.50448         3.78325        -4.30429
   C        8.45191         2.90348        -4.62351
   C        8.49846         2.65359        -6.04942
   O        7.81009         1.97062        -6.78137
   N        9.60039         3.40380        -6.49930
   C        9.94366         3.45073        -7.90090
   C        9.43846         4.72894        -8.56533
   C       10.21005         4.08473        -5.47659
   C       11.35942         4.89836        -5.64236
   C       11.95023         5.53042        -4.59834
   C       13.13339         6.34435        -4.65633
   C       13.68955         6.79491        -3.45521
   C       14.83550         7.56836        -3.43883
   N       15.30012         8.00236        -2.14180
   O       14.99641         7.31731        -1.19108
   O       15.95430         9.02229        -2.07592
   C       15.49779         7.93638        -4.62857
   C       14.92258         7.48066        -5.82551
   C       13.78096         6.71724        -5.84588
   C       16.73513         8.67825        -4.63243
   C       17.17034         9.43600        -5.65905
   C       18.40237        10.15901        -5.65835
   S       18.88546        11.00256        -7.09537
   C       20.32694        11.52777        -6.31035
   N       21.23303        12.32255        -7.03247
   O       22.24366        12.68332        -6.46345
   O       20.93348        12.58669        -8.18245
   C       20.42731        11.08498        -5.01009
   C       19.33293        10.30786        -4.64211
   H        3.67943        -3.39717        -9.37349
   H        3.41282         0.57901        -7.68420
   H        8.55338        -1.89433        -7.67244
   H        7.58076        -0.79806        -5.46718
   H        2.87306        -1.81742        -6.00133
   H        1.98402        -1.06693        -3.62794
   H        6.58228         1.13421        -5.25950
   H        6.24325         1.64678        -2.25815
   H        6.91757         3.30488        -0.92661
   H        8.45268         4.13337        -0.57081
   H        8.10878         1.09499        -0.78190
   H        8.27875         2.01602         0.71284
   H        9.62066         1.94559        -0.43265
   H        9.46032         2.58399        -8.36002
   H       11.02630         3.34982        -8.01570
   H        8.35602         4.78729        -8.48347
   H        9.70549         4.72476        -9.61822
   H        9.86768         5.61216        -8.09701
   H       11.76480         4.97939        -6.64006
   H       11.51924         5.41088        -3.61263
   H       13.22089         6.54125        -2.51498
   H       15.41323         7.71674        -6.75650
   H       13.38262         6.40206        -6.79741
   H       17.33387         8.63507        -3.73538
   H       16.56879         9.55126        -6.55028
   H       21.26172        11.32678        -4.37705
   H       19.21223         9.88169        -3.66358
*
