# ORCA input file
# SCF done       -221.892960605964          0.000739042706
! CAM-B3LYP def2-SVP def2/J RIJCOSX Grid4 TightSCF
%maxcore 5000
%tddft
    Mode sTDDFT
    Ethresh 5.0
    maxcore 5000
end

%pal
  nprocs 6
  end
* xyz 0 1
   C        5.44094         2.28693        -0.89696
   C        6.41122         2.62386        -1.80049
   C        7.69936         2.04795        -1.82759
   N        8.75952         1.61482        -1.89739
   C        6.21756         3.54428        -2.85226
   N        6.08708         4.26684        -3.73499
   C        5.53607         1.27803         0.14708
   C        4.24116         1.06529         0.70782
   C        4.03444         0.17296         1.72015
   C        5.13222        -0.55393         2.23191
   C        6.42945        -0.34583         1.67750
   C        6.61374         0.58024         0.62674
   C        7.51661        -1.07692         2.19893
   C        7.33429        -1.96983         3.21944
   C        6.05766        -2.17306         3.76539
   C        4.98043        -1.48107         3.28189
   C        3.26781         1.93065         0.02811
   O        2.06085         1.88034         0.06280
   C        4.09720         2.84045        -0.82658
   C        3.66000         4.01487        -1.32541
   C        2.38480         4.61235        -1.04903
   C        1.74833         4.81854         0.15454
   N        2.16745         4.44887         1.45263
   O        3.27579         3.95836         1.59545
   O        1.39941         4.67089         2.36607
   C        0.55095         5.60578        -0.05908
   C        0.48158         5.94175        -1.36480
   C        1.60671         5.35293        -2.05645
   C        1.87039         5.36214        -3.40391
   C        2.55059         4.32488        -4.12437
   C        2.33452         4.50080        -5.45438
   C        1.59558         5.71735        -5.65058
   N        1.27486         6.20645        -6.93346
   O        0.67861         7.26746        -7.02291
   O        1.60678         5.52581        -7.88545
   C        1.33550         6.30408        -4.41693
   C        0.86321         7.61305        -4.19268
   C        1.06542         8.32467        -3.04698
   C        0.62706         9.64546        -2.83771
   S       -0.14556        10.66327        -4.03426
   C       -0.26943        12.02668        -2.93656
   C        0.24980        11.66978        -1.69632
   C        0.74839        10.35802        -1.65699
   C        1.27628        10.07581        -0.31304
   O        1.77811         9.07653         0.13185
   N        1.06303        11.26048         0.37918
   C        0.45620        12.26703        -0.36241
   O        0.18526        13.36085         0.06284
   C       -0.79813        13.24300        -3.42114
   C       -0.95092        14.36578        -2.66522
   C       -1.40262        15.60936        -3.17135
   C       -1.67248        15.97613        -4.47472
   C       -2.02582        17.35505        -4.51115
   C       -1.98767        17.82444        -3.11107
   C       -1.61046        16.78154        -2.32921
   C       -2.28469        19.11321        -2.65219
   N       -2.52469        20.16081        -2.24749
   C       -2.28802        18.12008        -5.62482
   C       -2.55894        19.51637        -5.68115
   C       -2.67383        19.90771        -6.99972
   C       -2.49898        18.72086        -7.83311
   C       -2.27721        17.65260        -7.02745
   C       -2.07914        16.33877        -7.46878
   N       -1.92258        15.26810        -7.85406
   C       -2.89133        21.22867        -7.45806
   C       -2.88612        21.59934        -8.76947
   C       -3.06755        22.94262        -9.16813
   C       -3.00169        23.37894       -10.46166
   C       -3.15513        24.74448       -10.93154
   C       -3.53598        25.83158       -10.18755
   C       -3.67535        27.13590       -10.70839
   N       -3.80697        28.21872       -11.06582
   C       -3.86183        25.81590        -8.81499
   N       -4.14792        25.88530        -7.70502
   C       -2.85920        24.75962       -12.35965
   C       -2.58627        23.42739       -12.78381
   C       -2.68672        22.51499       -11.63525
   O       -2.53450        21.31135       -11.64924
   C       -2.27443        23.13047       -14.07970
   C       -2.21451        24.17358       -15.02997
   C       -2.48183        25.51024       -14.61379
   C       -2.80595        25.78621       -13.26567
   C       -2.41444        26.54480       -15.56907
   C       -2.09800        26.27401       -16.87261
   C       -1.83520        24.95774       -17.28109
   C       -1.89273        23.92958       -16.37956
   H        3.04687         0.03078         2.13256
   H        7.60755         0.72499         0.23243
   H        8.49721        -0.91708         1.77523
   H        8.17314        -2.52420         3.61269
   H        5.93259        -2.88046         4.57139
   H        3.99581        -1.63333         3.69873
   H        4.30657         4.59943        -1.96900
   H       -0.13311         5.85514         0.72884
   H       -0.31660         6.46688        -1.85157
   H        3.02353         3.47794        -3.66807
   H        2.65068         3.86404        -6.25897
   H        0.38679         8.10178        -5.03487
   H        1.61831         7.90352        -2.21760
   H        1.32211        11.38516         1.34784
   H       -1.07575        13.25261        -4.46643
   H       -0.70079        14.33405        -1.61307
   H       -1.60481        15.34864        -5.34052
   H       -1.48034        16.79098        -1.26284
   H       -2.63596        20.16082        -4.82735
   H       -2.54739        18.70274        -8.90554
   H       -3.04654        21.98241        -6.69501
   H       -2.72101        20.86724        -9.54514
   H       -3.24940        23.66103        -8.37879
   H       -2.07291        22.11125       -14.37443
   H       -2.99942        26.80893       -12.98408
   H       -2.61794        27.55649       -15.25022
   H       -2.04818        27.07330       -17.59663
   H       -1.58665        24.76258       -18.31345
   H       -1.69128        22.91421       -16.68799
*
