# ORCA input file
# SCF done       -258.155072426766          0.000658953990
! CAM-B3LYP def2-SVP def2/J RIJCOSX Grid4 TightSCF
%maxcore 5000
%tddft
    Mode sTDDFT
    Ethresh 5.0
    maxcore 5000
end

%pal
  nprocs 6
  end
* xyz 0 1
   C        2.32008         2.26238        -0.71273
   C        2.35394         2.56329         0.62644
   C        3.04095         1.79429         1.58742
   N        3.55280         1.18558         2.41503
   C        1.78092         3.73237         1.16583
   N        1.35241         4.69524         1.62021
   C        3.11044         1.23427        -1.37662
   C        3.13797         1.51450        -2.77406
   C        3.82926         0.72797        -3.64922
   C        4.52751        -0.39844        -3.15859
   C        4.49012        -0.69214        -1.76470
   C        3.77148         0.14396        -0.88019
   C        5.18367        -1.82422        -1.29099
   C        5.88416        -2.62683        -2.14981
   C        5.92245        -2.33541        -3.52144
   C        5.25864        -1.24495        -4.01485
   C        2.32200         2.70784        -3.04839
   O        2.16377         3.29015        -4.09493
   C        1.67107         3.04283        -1.74281
   C        0.60861         3.88922        -1.74622
   C       -0.38024         4.14465        -0.75880
   S       -1.07087         5.73962        -0.71755
   C       -2.08818         5.34057         0.62762
   C       -1.91999         4.00573         0.98701
   C       -0.97323         3.33188         0.19727
   C       -0.78655         1.85142         0.31121
   N       -0.58700         1.22452        -1.01985
   O        0.27707         0.38445        -1.10308
   O       -1.33107         1.55673        -1.90700
   C       -2.05510         1.22279         0.89832
   C       -2.34367         1.85802         2.24947
   C       -2.66095         3.34815         2.11706
   N       -2.24586         4.02916         3.39185
   O       -3.03543         4.80895         3.86705
   O       -1.16624         3.75824         3.84216
   C       -2.95021         6.30217         1.21381
   C       -3.09880         7.56569         0.74382
   C       -3.92257         8.54901         1.34286
   C       -4.59879         8.51421         2.55398
   C       -5.31353         9.67482         2.83225
   C       -5.18064        10.61517         1.80018
   S       -4.17580        10.07205         0.52113
   C       -5.88056        11.83068         1.98535
   C       -6.60176        11.94187         3.17876
  Si       -6.40863        10.37321         4.18628
   C       -7.98605         9.41342         4.42000
   C       -7.93338         8.05400         4.74722
   C       -9.08525         7.32118         4.95731
   C      -10.32478         7.93040         4.84607
   C      -10.40118         9.27477         4.52535
   C       -9.24684        10.00647         4.31523
   C       -5.47959        10.66156         5.77776
   C       -6.01330        10.27634         7.00986
   C       -5.32278        10.48960         8.18831
   C       -4.07774        11.09507         8.16321
   C       -3.52778        11.48574         6.95309
   C       -4.22056        11.27137         5.77734
   C       -7.25435        13.17042         3.26624
   C       -7.06002        13.98675         2.16568
   S       -6.01173        13.22181         0.99095
   C       -7.56351        15.28850         1.87981
   S       -6.74237        16.27812         0.72068
   C       -7.90660        17.55877         0.88080
   C       -8.86511        17.22750         1.83105
   C       -8.68135        15.94603         2.37991
   C       -9.66378        15.33278         3.32857
   N      -10.09244        13.98991         2.84154
   O      -10.34255        13.16371         3.68504
   O      -10.21051        13.83860         1.65369
   C      -10.94128        16.17579         3.42404
   C      -10.56113        17.63592         3.62262
   C       -9.91821        18.16574         2.33502
   N       -9.31139        19.48485         2.69605
   O       -8.17134        19.48123         3.08650
   O      -10.03095        20.44708         2.63292
   C       -7.76154        18.70246         0.05162
   C       -8.74953        19.57734        -0.26761
   C       -8.54363        20.69742        -1.10330
   C       -9.55005        21.53688        -1.49065
   C       -9.42667        22.72750        -2.31081
   C       -8.30605        23.15834        -2.97324
   C       -8.25649        24.32152        -3.76974
   N       -8.14762        25.25264        -4.43270
   C       -7.05705        22.50351        -2.98516
   N       -6.01416        22.02734        -3.05574
   C      -10.73037        23.38176        -2.34328
   C      -11.65801        22.58554        -1.61294
   C      -10.97410        21.39399        -1.08630
   O      -11.48770        20.48205        -0.46862
   C      -12.96742        22.94535        -1.47450
   C      -13.41924        24.14403        -2.06986
   C      -12.49751        24.94844        -2.79996
   C      -11.14717        24.54902        -2.92675
   C      -12.95862        26.14259        -3.39055
   C      -14.26661        26.52507        -3.26739
   C      -15.17324        25.73226        -2.54795
   C      -14.75849        24.56718        -1.96195
   H        3.84141         0.95963        -4.70387
   H        3.74834        -0.10789         0.16841
   H        5.15330        -2.04326        -0.23373
   H        6.41317        -3.49108        -1.77676
   H        6.47972        -2.97945        -4.18523
   H        5.28398        -1.01620        -5.07028
   H        0.48918         4.45054        -2.66920
   H        0.08425         1.58369         0.92364
   H       -1.91302         0.14753         1.01832
   H       -2.88705         1.39241         0.21012
   H       -1.46060         1.74903         2.88547
   H       -3.17811         1.34545         2.72952
   H       -3.73611         3.53142         2.01762
   H       -3.50603         6.00287         2.08864
   H       -2.56591         7.86007        -0.15175
   H       -4.54890         7.67190         3.22001
   H       -6.97019         7.57240         4.83912
   H       -9.01836         6.27249         5.20919
   H      -11.22631         7.35803         5.00936
   H      -11.36196         9.75974         4.43760
   H       -9.32780        11.05440         4.06928
   H       -6.98403         9.80172         7.03559
   H       -5.75566        10.18203         9.12916
   H       -3.53663        11.26107         9.08306
   H       -2.55595        11.95676         6.92821
   H       -3.78476        11.57683         4.83619
   H       -7.81526        13.45682         4.13648
   H       -9.23876        15.18995         4.32800
   H      -11.55229        15.82182         4.25528
   H      -11.51478        16.07209         2.49955
   H       -9.85073        17.71927         4.44941
   H      -11.44271        18.23191         3.86046
   H      -10.69909        18.36242         1.59314
   H       -6.78515        18.83136        -0.39945
   H       -9.75889        19.42599         0.07457
   H       -7.52890        20.89495        -1.42234
   H      -13.65003        22.32293        -0.91515
   H      -10.47503        25.18247        -3.48328
   H      -12.25696        26.74940        -3.94393
   H      -14.61013        27.44128        -3.72388
   H      -16.20172        26.04939        -2.46045
   H      -15.45195        23.95251        -1.40667
*
