# ORCA input file
# SCF done       -214.104193328426          0.000581772348
! CAM-B3LYP def2-SVP def2/J RIJCOSX Grid4 TightSCF
%maxcore 5000
%tddft
    Mode sTDDFT
    Ethresh 5.0
    maxcore 5000
end

%pal
  nprocs 6
  end
* xyz 0 1
   C        2.91007         5.03908         1.85961
   C        2.96360         6.39816         1.67926
   C        3.34732         7.31254         2.67863
   N        3.61892         8.11835         3.45033
   C        2.67012         7.01745         0.45188
   N        2.44218         7.55254        -0.53955
   C        3.34408         4.30776         3.03503
   C        3.59837         2.95276         2.66067
   C        4.02972         2.03211         3.57215
   C        4.19904         2.42416         4.91968
   C        3.90651         3.76660         5.30372
   C        3.49018         4.70737         4.33625
   C        4.03275         4.13269         6.65905
   C        4.44619         3.21983         7.59115
   C        4.75277         1.90444         7.21086
   C        4.62974         1.51384         5.90432
   C        3.26795         2.76957         1.24050
   O        3.41828         1.79861         0.53869
   C        2.60982         4.05534         0.83797
   C        1.76125         4.05880        -0.21610
   C        0.73190         4.99256        -0.54229
   C       -0.01560         5.78544         0.32650
   N        0.03565         5.82582         1.72578
   O        0.30894         4.82050         2.35527
   O       -0.16789         6.91965         2.24435
   C       -0.91116         6.62066        -0.41857
   C       -0.68488         6.40755        -1.73630
   C        0.36069         5.41913        -1.88290
   C        0.94010         5.05642        -3.08929
   C        1.48140         3.80518        -3.47992
   C        1.64380         3.79511        -4.84048
   C        1.30497         5.07596        -5.36492
   N        1.42909         5.40414        -6.72369
   O        1.12898         6.53387        -7.08442
   O        1.82115         4.53105        -7.47748
   C        0.92173         5.90871        -4.30815
   C        0.75011         7.29601        -4.35796
   C        0.81375         8.14890        -3.28308
   C        0.52085         9.51713        -3.35782
   S        0.19131        10.35993        -4.84197
   C       -0.00633        11.85995        -3.99764
   C       -0.31896        13.14551        -4.66176
   O       -0.45674        14.15483        -4.02726
   O       -0.43823        13.12608        -5.99215
   C        0.14677        11.71844        -2.64067
   C        0.43803        10.39717        -2.26066
   O        0.56487         9.89488        -1.02255
   C        0.70952        10.68480         0.04753
   C        0.72477        10.16649         1.29693
   C        0.93643        10.95422         2.45155
   S        1.07408        12.67513         2.38128
   C        1.47213        12.81755         4.06666
   C        1.42685        11.55563         4.68602
   C        1.12478        10.49931         3.77212
   C        1.06878         9.17203         4.22347
   C        1.34816         8.90357         5.54480
   C        1.43098         7.56873         5.99949
   N        1.55294         6.48753         6.35967
   C        1.57626         9.96375         6.47072
   C        1.78930         9.65833         7.83507
   N        1.96591         9.42263         8.94233
   C        1.57349        11.27479         6.05331
   C        1.73491        14.09908         4.58820
   C        2.57447        14.41592         5.62210
   C        2.69519        15.71997         6.24187
   C        1.78350        16.74095         6.15117
   C        1.92692        17.98655         6.79651
   N        1.99362        19.02058         7.29038
   C        0.57011        16.66742         5.43610
   N       -0.44187        16.65952         4.89303
   C        3.89984        15.71586         7.06097
   C        4.49303        14.42237         6.98757
   C        3.69558        13.56118         6.10060
   O        3.94981        12.42435         5.76182
   C        5.63474        14.11287         7.66927
   C        6.24523        15.10153         8.47337
   C        5.66377        16.40082         8.54374
   C        4.48198        16.69253         7.82413
   C        6.28533        17.38090         9.34340
   C        7.42477        17.09240        10.04459
   C        7.99456        15.81237         9.97732
   C        7.41745        14.83788         9.20850
   H        4.22591         1.01292         3.27373
   H        3.25757         5.71059         4.65646
   H        3.78114         5.14275         6.94439
   H        4.53644         3.50608         8.62809
   H        5.07955         1.19809         7.95946
   H        4.85479         0.49930         5.60927
   H        1.83273         3.18210        -0.84838
   H       -1.64206         7.26297         0.03354
   H       -1.24259         6.81813        -2.55457
   H        1.61830         2.95351        -2.84439
   H        1.97283         2.97153        -5.44655
   H        0.61006         7.71923        -5.34759
   H        1.13837         7.80268        -2.31077
   H       -0.29890        12.25548        -6.39029
   H        0.02441        12.55863        -1.98142
   H        0.84150        11.74789        -0.11875
   H        0.58780         9.10338         1.43039
   H        0.79389         8.37221         3.55519
   H        1.67688        12.07015         6.77339
   H        1.25358        14.91326         4.05821
   H        6.06314        13.12404         7.59996
   H        4.06857        17.68631         7.89261
   H        5.84163        18.36438         9.39348
   H        7.89261        17.84950        10.65574
   H        8.89315        15.60198        10.53762
   H        7.85167        13.85049         9.15296
*
