# ORCA input file
# SCF done       -219.284538123306          0.000641997245
! CAM-B3LYP def2-SVP def2/J RIJCOSX Grid4 TightSCF
%maxcore 5000
%tddft
    Mode sTDDFT
    Ethresh 5.0
    maxcore 5000
end

%pal
  nprocs 6
  end
* xyz 0 1
   C        8.90748         6.87601        -3.41105
   C        9.62136         5.70933        -3.43541
   C       10.93170         5.59454        -3.94516
   N       11.99809         5.45125        -4.34389
   C        9.09680         4.46853        -3.01411
   N        8.69169         3.43201        -2.73356
   C        9.30949         8.15466        -3.97721
   C        8.19464         9.04352        -3.93661
   C        8.27761        10.31979        -4.41692
   C        9.49836        10.77347        -4.96409
   C       10.61818         9.89218        -5.00072
   C       10.50380         8.57580        -4.49909
   C       11.83284        10.35884        -5.54279
   C       11.93898        11.63461        -6.02630
   C       10.83648        12.50151        -5.98995
   C        9.64219        12.08010        -5.47119
   C        7.05010         8.37352        -3.30173
   O        5.95148         8.83616        -3.07822
   C        7.55205         7.02557        -2.91246
   C        6.88839         6.20774        -2.06003
   C        5.52649         6.39721        -1.67239
   C        5.05111         6.49841        -0.37836
   N        5.84191         6.43336         0.78117
   O        5.27568         6.46591         1.85743
   O        7.05209         6.34456         0.63584
   C        3.64082         6.77177        -0.40356
   C        3.25324         6.87739        -1.70200
   C        4.38458         6.63359        -2.55370
   C        4.40528         6.48111        -3.92915
   C        5.29562         5.65699        -4.66601
   C        4.89164         5.63796        -5.97057
   C        3.75655         6.48850        -6.13778
   N        3.19831         6.64184        -7.41093
   O        3.82519         6.18556        -8.35310
   O        2.11242         7.20061        -7.54873
   C        3.44240         7.06805        -4.88802
   C        2.62300         8.12607        -4.49321
   C        1.63941         8.74393        -5.23686
   C        0.83686         9.77815        -4.78119
   S        0.90513        10.50166        -3.18196
   C       -0.41917        11.60863        -3.48665
   C       -0.89664        11.42711        -4.80368
   C       -0.19055        10.41180        -5.49719
   N       -0.70488        10.28822        -6.73930
   C       -1.72866        11.19817        -6.86866
   C       -2.47507        11.32306        -8.05049
   N       -3.09185        11.43321        -9.01047
   C       -1.87526        11.91691        -5.69535
   C       -0.82278        12.46994        -2.46625
   C       -1.82909        13.39790        -2.57718
   C       -2.24594        14.26310        -1.55421
   C       -3.24388        15.22463        -1.67920
   C       -3.39257        15.91292        -0.45468
   C       -2.41415        15.30988         0.47186
   C       -1.73840        14.33677        -0.19183
   C       -2.19405        15.66507         1.80846
   N       -1.98554        15.93030         2.90621
   C       -4.25959        16.95266        -0.16863
   C       -4.41228        17.64775         1.05604
   C       -5.36768        18.63966         0.90605
   C       -5.85658        18.57864        -0.46670
   C       -5.20870        17.57609        -1.11343
   C       -5.41665        17.21573        -2.44956
   N       -5.60522        16.93780        -3.54827
   C       -5.78090        19.54938         1.90353
   C       -6.68408        20.55407         1.70631
   C       -7.04726        21.44602         2.73692
   C       -7.91258        22.49488         2.58198
   C       -8.31617        23.45075         3.59644
   C       -7.98837        23.42547         4.92838
   C       -8.42127        24.38600         5.86723
   N       -8.73553        25.13093         6.68216
   C       -7.19496        22.44737         5.56359
   N       -6.56462        21.69192         6.15606
   C       -9.16421        24.44995         2.95535
   C       -9.32122        24.10252         1.58295
   C       -8.56856        22.87173         1.29823
   O       -8.49937        22.29460         0.23285
   C      -10.06859        24.85866         0.72611
   C      -10.70339        26.02371         1.21043
   C      -10.54956        26.38083         2.58147
   C       -9.77178        25.57598         3.44537
   C      -11.18458        27.54721         3.05429
   C      -11.93507        28.32474         2.21466
   C      -12.08563        27.97218         0.86510
   C      -11.48324        26.84580         0.37355
   H        7.42179        10.97738        -4.37735
   H       11.36912         7.93255        -4.53111
   H       12.67827         9.68739        -5.56931
   H       12.87357        11.98304        -6.43923
   H       10.93849        13.50515        -6.37453
   H        8.79048        12.74376        -5.44030
   H        7.41669         5.39963        -1.56604
   H        3.03713         6.87125         0.47810
   H        2.24409         6.99552        -2.04673
   H        6.08009         5.06136        -4.24025
   H        5.32549         5.07352        -6.77500
   H        2.79692         8.50360        -3.49394
   H        1.44543         8.39252        -6.24104
   H       -0.40112         9.64374        -7.45303
   H       -2.60358        12.68590        -5.53767
   H       -0.28586        12.38219        -1.53184
   H       -2.35157        13.49212        -3.51751
   H       -3.81132        15.41694        -2.56841
   H       -0.96121        13.72120         0.22033
   H       -3.86646        17.43936         1.95547
   H       -6.60709        19.21970        -0.88894
   H       -5.32935        19.43009         2.88159
   H       -7.13977        20.69672         0.73844
   H       -6.58994        21.28080         3.70426
   H      -10.17104        24.57173        -0.30998
   H       -9.67495        25.87649         4.47636
   H      -11.06624        27.81462         4.09404
   H      -12.41683        29.21664         2.58612
   H      -12.68093        28.59757         0.21689
   H      -11.59547        26.56912        -0.66452
*
