# ORCA input file
# SCF done       -237.095935039234          0.000966221971
! CAM-B3LYP def2-SVP def2/J RIJCOSX Grid4 TightSCF
%maxcore 5000
%tddft
    Mode sTDDFT
    Ethresh 5.0
    maxcore 5000
end

%pal
  nprocs 6
  end
* xyz 0 1
   C        4.79049        14.53751         1.55161
   C        4.44045        13.32377         1.02122
   C        4.80484        12.07883         1.57986
   N        5.06936        11.03597         1.97729
   C        3.63566        13.14647        -0.11442
   N        2.98252        12.91601        -1.03213
   C        5.49067        14.73816         2.81097
   C        5.30111        16.08697         3.23713
   C        5.84052        16.55480         4.40134
   C        6.60981        15.68222         5.20283
   C        6.81446        14.33704         4.77572
   C        6.24332        13.87915         3.56691
   C        7.59091        13.47989         5.58201
   C        8.13779        13.92642         6.75426
   C        7.93541        15.24996         7.17369
   C        7.18726        16.10898         6.41488
   C        4.50066        16.80402         2.23723
   O        4.07623        17.93443         2.26718
   C        4.35648        15.84366         1.09422
   C        3.97510        16.33699        -0.10701
   C        4.03946        15.75601        -1.40701
   C        4.99013        14.91818        -1.97247
   N        6.24550        14.53811        -1.46385
   O        6.56601        14.90753        -0.34296
   O        6.95007        13.84690        -2.17672
   C        4.55153        14.50678        -3.28324
   C        3.31486        15.00989        -3.49908
   C        2.95589        15.85945        -2.38833
   C        1.81870        16.64387        -2.34833
   C        1.64220        17.95314        -1.81488
   C        0.50187        18.49345        -2.34441
   C       -0.14484        17.51959        -3.16289
   N       -1.38820        17.73731        -3.78848
   O       -1.87893        16.82632        -4.43397
   O       -1.89236        18.83670        -3.65674
   C        0.60745        16.34362        -3.14703
   C        0.21876        15.06578        -3.57048
   C        0.65839        13.90977        -2.96889
   C        0.30721        12.62614        -3.40507
   S       -0.11019        12.38428        -5.06595
   C       -0.15917        10.66425        -4.88758
   C        0.28367        10.27628        -3.58764
   C        0.43865        11.39010        -2.71164
   C        0.67390        11.15595        -1.34149
   N        0.50770        12.14599        -0.32071
   O       -0.15623        13.13165        -0.57582
   O        0.98277        11.91316         0.77191
   C        0.96352         9.86502        -0.91472
   C        1.02468         8.81811        -1.80559
   C        0.68860         8.98358        -3.15380
   N        0.74915         7.91503        -3.97921
   C       -0.70454         9.85741        -5.90729
   C       -0.62887        10.00684        -7.30378
   N       -0.03419        11.03086        -8.03470
   O        0.24587        12.07765        -7.44841
   O        0.17749        10.84704        -9.21778
   C       -1.18237         8.85207        -7.93047
   C       -1.63157         7.99508        -6.96681
   C       -1.41599         8.58671        -5.69010
   C       -1.96169         8.15939        -4.48716
   C       -2.38930         8.98013        -3.39984
   C       -3.03420         8.19815        -2.49262
   C       -2.99659         6.83335        -2.94165
   N       -3.41598         5.78098        -2.09985
   O       -3.10924         4.63798        -2.38755
   O       -4.03586         6.09218        -1.09930
   C       -2.36208         6.77641        -4.17739
   C       -1.98647         5.67331        -4.98593
   C       -2.65441         4.49625        -5.13531
   C       -2.12467         3.47666        -5.95886
   C       -2.77502         2.32675        -6.30124
   C       -2.23189         1.20634        -7.04686
   C       -0.98781         1.12762        -7.62135
   C       -0.51578         0.00737        -8.33819
   N       -0.06755        -0.86583        -8.93331
   C       -0.00817         2.14121        -7.59783
   N        0.83484         2.92158        -7.62383
   C       -3.25113         0.16520        -7.08726
   C       -4.41935         0.64021        -6.42346
   C       -4.18853         2.01173        -5.94194
   O       -4.98966         2.74371        -5.40537
   C       -5.54474        -0.12392        -6.30862
   C       -5.55424        -1.42460        -6.86000
   C       -4.38919        -1.90868        -7.52315
   C       -3.23902        -1.09418        -7.62787
   C       -4.40896        -3.20790        -8.07010
   C       -5.52542        -3.99251        -7.96877
   C       -6.67184        -3.51492        -7.31618
   C       -6.68608        -2.25845        -6.77333
   H        5.68431        17.57873         4.70675
   H        6.42866        12.86257         3.25752
   H        7.74243        12.46149         5.25622
   H        8.73002        13.26200         7.36528
   H        8.37584        15.58572         8.10041
   H        7.02859        17.12896         6.73273
   H        3.57427        17.34382        -0.05422
   H        5.14490        13.89959        -3.93895
   H        2.73327        14.90971        -4.39402
   H        2.34946        18.48758        -1.21207
   H        0.12182        19.48579        -2.18759
   H       -0.57092        15.01516        -4.31090
   H        1.28266        13.98348        -2.09040
   H        1.15543         9.70548         0.13539
   H        1.30991         7.83665        -1.46031
   H        1.19372         7.08153        -3.63111
   H        0.74368         8.04964        -4.97643
   H       -1.23620         8.72608        -8.99497
   H       -2.17741         7.08829        -7.13662
   H       -2.31213        10.04867        -3.36727
   H       -3.50490         8.50537        -1.57815
   H       -1.09127         5.82094        -5.58083
   H       -3.60128         4.31904        -4.65010
   H       -1.11286         3.62723        -6.31427
   H       -6.41710         0.26007        -5.80117
   H       -2.37420        -1.49098        -8.13525
   H       -3.52402        -3.57105        -8.57158
   H       -5.53112        -4.98609        -8.39102
   H       -7.54367        -4.14769        -7.24555
   H       -7.56573        -1.88584        -6.26953
*
