# ORCA input file
# SCF done       -239.652224530411          0.000976629913
! CAM-B3LYP def2-SVP def2/J RIJCOSX Grid4 TightSCF
%maxcore 5000
%tddft
    Mode sTDDFT
    Ethresh 5.0
    maxcore 5000
end

%pal
  nprocs 6
  end
* xyz 0 1
   C        1.62826         5.66003        -9.37532
   C        0.89886         6.80722        -9.19627
   C        0.02873         7.34170       -10.16939
   N       -0.69435         7.82169       -10.91989
   C        0.87935         7.54485        -7.99982
   N        0.79325         8.16566        -7.03633
   C        1.52516         4.75501       -10.50951
   C        2.01452         3.47311       -10.11694
   C        2.02349         2.41620       -10.98149
   C        1.54536         2.59998       -12.29853
   C        1.07314         3.88394       -12.70059
   C        1.06911         4.95945       -11.78339
   C        0.61239         4.05471       -14.02181
   C        0.61378         3.00909       -14.90461
   C        1.07601         1.74538       -14.50747
   C        1.53117         1.54511       -13.23234
   C        2.49199         3.53856        -8.72722
   O        2.90290         2.64801        -8.02123
   C        2.42629         4.98959        -8.36968
   C        3.16682         5.44795        -7.32957
   C        3.57240         6.77497        -7.02378
   C        3.81754         7.86192        -7.86545
   N        3.92868         7.89552        -9.26206
   O        3.80437         6.85497        -9.89754
   O        4.14682         8.97759        -9.78173
   C        4.07894         9.02729        -7.06820
   C        3.93465         8.69634        -5.75869
   C        3.67587         7.29055        -5.66099
   C        3.60535         6.58564        -4.45991
   C        4.12413         5.29724        -4.18141
   C        4.15322         5.10707        -2.81801
   C        3.59140         6.23735        -2.18233
   N        3.43533         6.33300        -0.78987
   O        3.82570         5.39451        -0.11805
   O        2.93618         7.34576        -0.31893
   C        3.19011         7.16622        -3.17139
   C        2.36867         8.27118        -2.96623
   C        1.61797         8.91543        -3.93502
   C        0.83153        10.03577        -3.67922
   C        0.65636        10.71531        -2.43927
   C       -0.21366        11.77476        -2.63105
   C       -0.58757        11.75984        -4.07906
   C        0.04087        10.70853        -4.67345
   O       -1.41706        12.66796        -4.56659
   C       -1.76509        12.58028        -5.93358
   C       -0.69893        12.67667        -1.68124
   C       -1.53035        13.76913        -1.87958
   C       -1.76396        14.40443        -0.63588
   C       -1.05416        13.65347         0.38224
   C       -0.42141        12.61462        -0.21625
   O        0.32395        11.63982         0.29884
   C        0.52760        11.64590         1.69750
   C       -2.60518        15.49244        -0.35588
   C       -3.81684        15.85321        -0.97319
   N       -4.35702        15.48743        -2.22261
   O       -3.60369        15.21190        -3.14054
   O       -5.57163        15.50992        -2.32078
   C       -4.59038        16.61975        -0.05411
   C       -3.87152        16.82520         1.08873
   C       -2.57327        16.25815         0.91560
   C       -1.41391        16.53891         1.61356
   C       -0.08180        16.21120         1.16060
   C        0.79774        16.41824         2.16810
   C        0.06267        16.89963         3.30936
   N        0.66972        17.24011         4.53028
   O        1.84967        16.96739         4.66308
   O       -0.01327        17.78134         5.38579
   C       -1.27271        17.06539         2.97790
   C       -2.25604        17.60237         3.86864
   C       -3.10882        18.60868         3.55885
   C       -4.02716        19.12197         4.51204
   C       -4.90347        20.13544         4.26615
   C       -5.84362        20.72255         5.20738
   C       -6.22528        20.19771         6.41344
   C       -7.15787        20.80810         7.27940
   N       -7.90533        21.25600         8.02618
   C       -5.79086        18.95999         6.93453
   N       -5.50579        17.95147         7.40321
   C       -6.36821        21.94113         4.60419
   C       -5.86489        22.04621         3.27504
   C       -4.98434        20.90344         2.99048
   O       -4.44581        20.64101         1.93551
   C       -6.19879        23.08802         2.45748
   C       -7.06176        24.09521         2.94273
   C       -7.56415        24.00108         4.27338
   C       -7.20450        22.90890         5.09541
   C       -8.42288        25.01331         4.74811
   C       -8.76983        26.06832         3.94866
   C       -8.27432        26.16031         2.63920
   C       -7.43875        25.19476         2.14671
   H        2.39488         1.45190       -10.66773
   H        0.72518         5.92669       -12.11518
   H        0.25582         5.02883       -14.32223
   H        0.25888         3.15006       -15.91446
   H        1.07108         0.93180       -15.21723
   H        1.88929         0.57448       -12.92188
   H        3.51600         4.66947        -6.66100
   H        4.34708         9.97945        -7.48365
   H        4.08928         9.34191        -4.91640
   H        4.55698         4.62726        -4.89841
   H        4.53938         4.25219        -2.29503
   H        2.25885         8.58728        -1.93651
   H        1.59209         8.52815        -4.94458
   H        1.10303        10.44582        -1.50347
   H       -0.00845        10.39439        -5.69736
   H       -2.46630        13.39252        -6.11357
   H       -2.23986        11.62087        -6.15426
   H       -0.88333        12.69842        -6.56890
   H       -1.89420        14.10928        -2.82786
   H       -1.10283        13.86683         1.43090
   H       -0.42076        11.53655         2.23007
   H        1.01561        12.57090         2.01650
   H        1.16998        10.79417         1.91203
   H       -5.58322        16.96960        -0.26706
   H       -4.20307        17.38447         1.93817
   H        0.15425        15.89309         0.16479
   H        1.86291        16.28922         2.16059
   H       -2.21937        17.24947         4.89375
   H       -3.07038        19.08196         2.58771
   H       -4.00063        18.67113         5.49588
   H       -5.80615        23.14345         1.45297
   H       -7.59679        22.86939         6.09920
   H       -8.80247        24.93774         5.75646
   H       -9.42856        26.83829         4.32112
   H       -8.55786        27.00016         2.02285
   H       -7.05416        25.26026         1.13948
*
