# ORCA input file
# SCF done       -245.778836719842          0.000803991592
! CAM-B3LYP def2-SVP def2/J RIJCOSX Grid4 TightSCF
%maxcore 5000
%tddft
    Mode sTDDFT
    Ethresh 5.0
    maxcore 5000
end

%pal
  nprocs 6
  end
* xyz 0 1
   C       -4.35797        -1.29882        -2.24382
   C       -4.04259        -1.40646        -3.56930
   F       -3.35349        -0.43471        -4.17860
   C       -4.43662        -2.53917        -4.31077
   F       -4.11310        -2.61834        -5.60755
   C       -5.14142        -3.54798        -3.71631
   C       -5.48152        -3.46671        -2.35179
   C       -5.08143        -2.32308        -1.60053
   C       -5.40403        -2.22380        -0.22814
   C       -6.10145        -3.23793         0.37350
   C       -6.50790        -4.37204        -0.38598
   C       -6.21186        -4.49353        -1.71396
   C       -7.26082        -5.30087         0.47518
   O       -7.79853        -6.33459         0.13736
   C       -7.30128        -4.65342         1.81243
   C       -6.53845        -3.42120         1.75184
   C       -6.19568        -2.64102         2.82235
   C       -6.50126        -2.96875         4.16138
   N       -6.67188        -3.21920         5.26808
   C       -5.43541        -1.45653         2.72502
   N       -4.82811        -0.48356         2.69583
   C       -8.10020        -5.07265         2.83025
   C       -8.72814        -6.34769         2.88739
   C      -10.05456        -6.60711         3.20255
   N      -11.02263        -5.63931         3.53117
   O      -12.10904        -6.03494         3.90761
   O      -10.70765        -4.46424         3.42963
   C      -10.31416        -8.01138         3.08024
   C       -9.17129        -8.61865         2.66337
   C       -8.13047        -7.63179         2.54417
   C       -6.77754        -7.87028         2.35998
   C       -5.70336        -7.14867         2.93810
   C       -4.53958        -7.84973         2.74286
   C       -4.81631        -9.00895         1.97021
   N       -3.82914        -9.90480         1.55295
   O       -2.68753        -9.71001         1.93660
   O       -4.15035       -10.84935         0.83889
   C       -6.19243        -9.03599         1.66673
   C       -6.84135        -9.88536         0.77988
   C       -8.05318        -9.61809         0.16420
   C       -8.73169       -10.55912        -0.59861
   S      -10.21573       -10.15846        -1.42356
   C      -10.41061       -11.75517        -2.07262
   C       -9.33644       -12.58147        -1.66965
   C       -8.40518       -11.91994        -0.83424
   N       -7.34225       -12.56157        -0.32646
   C       -7.19360       -13.82408        -0.66262
   O       -6.16804       -14.52847        -0.22887
   C       -5.21140       -13.88336         0.62324
   C       -5.73396       -13.71815         2.04235
   C       -8.14390       -14.50184        -1.51476
   C       -7.93149       -15.94566        -1.83693
   N       -8.85549       -16.41547        -2.84037
   N       -9.18759       -13.88217        -1.98700
   C      -11.52444       -12.11785        -2.84194
   C      -12.63971       -11.33956        -3.12374
   C      -13.56335       -12.10989        -3.86763
   C      -12.93030       -13.43012        -4.06837
   C      -11.71689       -13.42218        -3.46058
   C      -13.46069       -14.51137        -4.78264
   N      -13.87041       -15.41473        -5.36151
   C      -14.82383       -11.73554        -4.29370
   C      -15.80161       -12.55046        -4.91699
   C      -16.94649       -11.80439        -5.13175
   C      -16.68882       -10.45188        -4.65513
   C      -15.43105       -10.39712        -4.14831
   C      -14.81861        -9.25843        -3.61339
   N      -14.33392        -8.30993        -3.18343
   C      -18.19371       -12.21897        -5.65468
   C      -18.46740       -13.48013        -6.09367
   C      -19.70569       -13.91717        -6.61764
   C      -20.97121       -13.42917        -6.46031
   C      -22.00834       -13.85271        -7.44933
   O      -21.90474       -14.74313        -8.25918
   C      -23.13893       -12.92683        -7.25289
   C      -24.28655       -12.80670        -7.98250
   C      -25.22555       -11.81353        -7.62542
   C      -24.94971       -10.95611        -6.52066
   C      -25.88464        -9.95915        -6.17684
   C      -27.04069        -9.82286        -6.89307
   C      -27.31407       -10.67384        -7.98342
   C      -26.42631       -11.64885        -8.34304
   F      -28.45440       -10.51689        -8.66692
   F      -27.92758        -8.87582        -6.56521
   C      -23.75586       -11.11033        -5.77905
   C      -22.86700       -12.08971        -6.13383
   C      -21.59040       -12.49552        -5.54516
   C      -21.20309       -12.21000        -4.26093
   C      -20.07440       -12.76437        -3.62661
   N      -19.17357       -13.19120        -3.05765
   C      -21.93149       -11.37089        -3.39130
   N      -22.47519       -10.68326        -2.65086
   H       -4.04757        -0.42620        -1.69063
   H       -5.43608        -4.40727        -4.29808
   H       -5.09463        -1.34465         0.31386
   H       -6.52907        -5.36279        -2.26981
   H       -8.34870        -4.38436         3.63064
   H      -11.26515        -8.46218         3.28940
   H       -9.01577        -9.67403         2.54962
   H       -5.81058        -6.26649         3.54008
   H       -3.56122        -7.59257         3.10423
   H       -6.32660       -10.79755         0.50136
   H       -8.47105        -8.62161         0.22162
   H       -4.93960       -12.91070         0.20660
   H       -4.34665       -14.54844         0.60472
   H       -6.59975       -13.06109         2.05234
   H       -4.95290       -13.27623         2.65277
   H       -6.01181       -14.68163         2.46331
   H       -7.97789       -16.49750        -0.87776
   H       -6.90928       -16.06578        -2.21352
   H       -9.81195       -16.22698        -2.56532
   H       -8.74612       -17.40942        -2.99760
   H      -12.79201       -10.32911        -2.79753
   H      -10.98890       -14.20984        -3.43313
   H      -15.66523       -13.58692        -5.15091
   H      -17.39499        -9.64316        -4.70029
   H      -18.96011       -11.45633        -5.72313
   H      -17.66327       -14.20235        -6.12057
   H      -19.65170       -14.75521        -7.30853
   H      -24.47425       -13.45911        -8.82154
   H      -25.69356        -9.30222        -5.34271
   H      -26.64987       -12.29176        -9.17989
   H      -23.57150       -10.44161        -4.95358
*
