# ORCA input file
# SCF done       -228.509163906879          0.000892348449
! CAM-B3LYP def2-SVP def2/J RIJCOSX Grid4 TightSCF
%maxcore 5000
%tddft
    Mode sTDDFT
    Ethresh 5.0
    maxcore 5000
end

%pal
  nprocs 6
  end
* xyz 0 1
   C      -13.79210        -1.42216         0.59972
   C      -14.85722        -2.06983         1.16037
   F      -15.95961        -1.38985         1.49324
   C      -14.80903        -3.45947         1.39589
   F      -15.86590        -4.06776         1.94771
   C      -13.69615        -4.18151         1.06743
   C      -12.58134        -3.54266         0.49001
   C      -12.62920        -2.13789         0.25018
   C      -11.52280        -1.47606        -0.32846
   C      -10.40263        -2.19586        -0.65274
   C      -10.35825        -3.59795        -0.40001
   C      -11.41554        -4.26411         0.15242
   C       -9.04215        -4.12773        -0.78930
   O       -8.64264        -5.26845        -0.68477
   C       -8.26558        -2.94877        -1.25628
   C       -9.14005        -1.78771        -1.25469
   C       -8.85090        -0.57232        -1.80658
   C       -7.65317        -0.30780        -2.50692
   N       -6.71511        -0.06983        -3.12279
   C       -9.73213         0.53029        -1.79710
   N      -10.41374         1.45271        -1.80707
   C       -6.92359        -2.99275        -1.42369
   C       -6.19780        -4.23088        -1.41339
   C       -5.25089        -4.61476        -0.49154
   N       -4.82449        -3.81319         0.58294
   O       -3.93701        -4.23692         1.29584
   O       -5.38457        -2.73656         0.72994
   C       -4.85761        -5.98131        -0.73546
   C       -5.59334        -6.45079        -1.77029
   C       -6.44471        -5.39223        -2.26431
   C       -7.20123        -5.38751        -3.41296
   C       -7.47282        -4.25363        -4.24176
   C       -7.90378        -4.69548        -5.45555
   C       -8.01093        -6.12773        -5.42477
   N       -8.50059        -6.88107        -6.50322
   O       -8.51020        -8.10211        -6.41079
   O       -8.87610        -6.27281        -7.48809
   C       -7.65164        -6.58090        -4.15854
   C       -7.89709        -7.86717        -3.64456
   C       -8.08789        -8.15172        -2.32267
   C       -8.46883        -9.41322        -1.81460
   S       -8.20252        -9.70495        -0.11810
   C       -8.80271       -11.32941        -0.24346
   C       -9.21164       -11.60511        -1.54948
   C       -9.05252       -10.52778        -2.42539
   C       -9.62909       -10.53387        -3.82007
   C      -10.39547        -9.31576        -4.00490
   N      -11.05582        -8.38841        -4.09594
   C      -10.56852       -11.73412        -4.02455
   C       -9.90216       -13.00307        -3.51403
   C       -9.77261       -12.93534        -1.98422
   C       -8.91777       -14.01652        -1.53924
   N       -8.23815       -14.87694        -1.21843
   C       -8.87293       -12.18576         0.88189
   C       -8.52768       -11.80584         2.13799
   C       -8.60710       -12.63393         3.28554
   S       -8.27612       -11.96123         4.85620
   C       -8.60086       -13.46757         5.64980
   C       -8.93842       -14.44709         4.70569
   C       -8.93927       -13.97225         3.38815
   C       -9.26808       -15.78219         5.00131
   N       -9.56727       -16.87307         5.19347
   C       -8.48616       -13.54863         7.05782
   C       -8.68019       -14.67580         7.78999
   C       -8.52190       -14.72664         9.19445
   C       -8.45795       -15.86371         9.94038
   C       -8.70290       -15.82368        11.40921
   O       -8.71430       -14.84236        12.11402
   C       -8.98815       -17.22274        11.78643
   C       -9.39538       -17.71795        12.99191
   C       -9.64488       -19.10287        13.11681
   C       -9.47275       -19.94985        11.98314
   C       -9.73183       -21.32918        12.11256
   C      -10.13966       -21.84379        13.31115
   C      -10.30820       -21.00543        14.43204
   C      -10.06619       -19.66357        14.33840
   F      -10.71021       -21.53720        15.59346
   F      -10.38468       -23.15414        13.43286
   C       -9.04381       -19.41016        10.74899
   C       -8.79754       -18.06663        10.65381
   C       -8.32147       -17.24937         9.54021
   C       -7.66188       -17.71658         8.43447
   C       -6.96242       -16.89686         7.52254
   N       -6.33355       -16.27730         6.78916
   C       -7.49776       -19.08928         8.14852
   N       -7.34092       -20.19362         7.88056
   H      -13.84611        -0.35895         0.42522
   H      -13.67544        -5.24373         1.25408
   H      -11.58344        -0.41222        -0.49339
   H      -11.36136        -5.32711         0.33179
   H       -6.34214        -2.08117        -1.49274
   H       -4.11109        -6.49639        -0.16217
   H       -5.50272        -7.41261        -2.23621
   H       -7.23854        -3.23845        -3.98334
   H       -8.13445        -4.10382        -6.32165
   H       -8.03247        -8.62950        -4.39417
   H       -7.96207        -7.36997        -1.58600
   H       -8.83396       -10.57228        -4.57423
   H      -10.80224       -11.82658        -5.08558
   H      -11.50522       -11.56529        -3.48649
   H       -8.91040       -13.10721        -3.96112
   H      -10.48942       -13.88012        -3.78941
   H      -10.76122       -13.07852        -1.52439
   H       -9.23219       -13.18917         0.70809
   H       -8.18103       -10.79339         2.30210
   H       -9.16276       -14.59955         2.54388
   H       -8.17725       -12.64053         7.56002
   H       -8.98113       -15.58336         7.28937
   H       -8.51409       -13.79173         9.74401
   H       -9.52740       -17.06153        13.83852
   H       -9.60468       -21.98507        11.26553
   H      -10.20002       -19.03559        15.20525
   H       -8.93055       -20.07129         9.90473
*
