# ORCA input file
# SCF done       -257.727846774405          0.000777328916
! CAM-B3LYP def2-SVP def2/J RIJCOSX Grid4 TightSCF
%maxcore 5000
%tddft
    Mode sTDDFT
    Ethresh 5.0
    maxcore 5000
end

%pal
  nprocs 6
  end
* xyz 0 1
   C       -5.52623         1.63346        -4.12062
   C       -6.45565         2.27823        -4.88692
   F       -6.37942         3.60283        -5.06591
   C       -7.50491         1.56060        -5.49735
   F       -8.40175         2.21969        -6.24202
   C       -7.60972         0.20801        -5.33247
   C       -6.66760        -0.48630        -4.54826
   C       -5.60631         0.23866        -3.93033
   C       -4.64935        -0.43579        -3.14064
   C       -4.75049        -1.79314        -2.97612
   C       -5.81131        -2.51141        -3.60013
   C       -6.75235        -1.88410        -4.36496
   C       -5.68499        -3.94495        -3.28416
   O       -6.48657        -4.82752        -3.47473
   C       -4.36006        -4.06754        -2.59723
   C       -3.91004        -2.72916        -2.24309
   C       -2.91809        -2.41857        -1.35664
   C       -2.22316        -3.39095        -0.60648
   N       -1.66230        -4.15903         0.03622
   C       -2.51796        -1.10166        -1.04378
   N       -2.15607        -0.05165        -0.75679
   C       -3.67430        -5.22217        -2.51333
   C       -4.10832        -6.46711        -3.10273
   C       -4.43659        -6.69377        -4.42697
   N       -4.43439        -5.78286        -5.49879
   O       -4.69174        -6.22377        -6.60357
   O       -4.17388        -4.60676        -5.28296
   C       -4.71683        -8.09703        -4.62148
   C       -4.63491        -8.71394        -3.42406
   C       -4.27745        -7.73826        -2.41201
   C       -4.15879        -7.96945        -1.05514
   C       -3.39836        -7.23081        -0.10415
   C       -3.23597        -7.99028         1.02027
   C       -3.96616        -9.20790         0.87942
   N       -4.04451       -10.16388         1.89570
   O       -4.73661       -11.16227         1.72167
   O       -3.39917        -9.96435         2.91118
   C       -4.62518        -9.19902        -0.35892
   C       -5.63366       -10.07564        -0.75673
   C       -6.62733        -9.80215        -1.67491
   C       -7.56562       -10.75637        -2.06324
   S       -8.87627       -10.34108        -3.13954
   C       -9.54079       -11.94074        -3.12908
   C       -8.76047       -12.77103        -2.30628
   C       -7.65452       -12.12149        -1.71081
   N       -6.80996       -12.79495        -0.91132
   C       -7.07488       -14.06493        -0.70677
   O       -6.32556       -14.79702         0.09193
   C       -5.20061       -14.17519         0.72894
   C       -4.03387       -13.99594        -0.23012
   C       -8.19665       -14.73375        -1.33537
   C       -8.42897       -16.18118        -1.05910
   N       -9.40833       -16.75669        -1.95007
   N       -9.01270       -14.07798        -2.11022
   C      -10.62849       -12.41765        -3.88089
   S      -10.92236       -14.12367        -3.89963
   C      -12.21635       -13.94226        -5.05214
   C      -12.39197       -12.59808        -5.40054
   C      -11.53371       -11.74151        -4.70405
   C      -11.66203       -10.25366        -4.74786
   N      -11.76848        -9.68453        -3.36651
   O      -11.52486        -8.51127        -3.26005
   O      -12.13502       -10.41488        -2.48232
   C      -12.95846        -9.83492        -5.45362
   C      -13.09530       -10.60709        -6.75570
   C      -13.33011       -12.09321        -6.44925
   N      -13.08643       -12.79702        -7.74139
   O      -14.04282       -12.96026        -8.46021
   O      -11.95333       -13.11132        -7.99766
   C      -12.91986       -15.12525        -5.37882
   C      -14.01167       -15.28375        -6.17713
   C      -14.64808       -16.53252        -6.32299
   C      -15.75011       -16.83515        -7.07009
   C      -16.05867       -18.27907        -7.28836
   O      -15.58483       -19.21103        -6.68116
   C      -17.01030       -18.31379        -8.41189
   C      -17.51407       -19.39634        -9.07363
   C      -18.38206       -19.18838       -10.16826
   C      -18.69865       -17.85585       -10.56214
   C      -19.55399       -17.65224       -11.66373
   C      -20.07367       -18.72098       -12.33876
   C      -19.76163       -20.03862       -11.94629
   C      -18.93311       -20.26903       -10.88394
   F      -20.28517       -21.06638       -12.62658
   F      -20.88749       -18.52618       -13.38365
   C      -18.16445       -16.75530        -9.85327
   C      -17.34106       -16.97929        -8.78170
   C      -16.67525       -16.05267        -7.86236
   C      -17.03663       -14.73719        -7.71526
   C      -16.57823       -13.83680        -6.73891
   N      -16.28013       -13.03649        -5.96821
   C      -18.02277       -14.10186        -8.50451
   N      -18.81363       -13.52348        -9.10144
   H       -4.72999         2.19739        -3.66029
   H       -8.41760        -0.32622        -5.80737
   H       -3.85104         0.13469        -2.69299
   H       -7.54541        -2.44830        -4.83120
   H       -2.69533        -5.23910        -2.05178
   H       -4.93006        -8.52746        -5.58043
   H       -4.73281        -9.76534        -3.24060
   H       -2.93620        -6.27814        -0.26302
   H       -2.66118        -7.73675         1.89136
   H       -5.69492       -11.01981        -0.22902
   H       -6.73587        -8.80648        -2.08520
   H       -4.93765       -14.86186         1.53509
   H       -5.49737       -13.20963         1.14471
   H       -3.73142       -14.95256        -0.64966
   H       -3.19867       -13.56526         0.31282
   H       -4.31020       -13.32334        -1.03783
   H       -8.69139       -16.25438         0.01427
   H       -7.47938       -16.71571        -1.18067
   H      -10.21577       -16.14924        -2.02757
   H       -9.70363       -17.66755        -1.62073
   H      -10.79575        -9.77289        -5.21631
   H      -12.93920        -8.76159        -5.64289
   H      -13.81320       -10.06059        -4.81098
   H      -12.17892       -10.49484        -7.34158
   H      -13.93169       -10.22208        -7.33946
   H      -14.38282       -12.26204        -6.17270
   H      -12.54518       -16.00810        -4.87336
   H      -14.42928       -14.46355        -6.72640
   H      -14.18834       -17.38541        -5.83326
   H      -17.24984       -20.39728        -8.76825
   H      -19.80560       -16.65060       -11.97558
   H      -18.70305       -21.28304       -10.59662
   H      -18.41327       -15.76132       -10.18730
*
