# ORCA input file
# SCF done       -251.658575262551          0.000442505201
! CAM-B3LYP def2-SVP def2/J RIJCOSX Grid4 TightSCF
%maxcore 5000
%tddft
    Mode sTDDFT
    Ethresh 5.0
    maxcore 5000
end

%pal
  nprocs 6
  end
* xyz 0 1
   C       -3.55998        -2.41735         5.06079
   C       -3.55536        -3.09872         6.24559
   F       -3.26437        -2.46370         7.38638
   C       -3.85613        -4.47598         6.28227
   F       -3.84365        -5.11802         7.45663
   C       -4.15708        -5.15242         5.13338
   C       -4.16896        -4.47862         3.89637
   C       -3.86645        -3.08586         3.85837
   C       -3.87487        -2.38878         2.62922
   C       -4.17535        -3.06366         1.47516
   C       -4.46652        -4.45755         1.51922
   C       -4.46813        -5.15563         2.69349
   C       -4.71435        -4.95504         0.15397
   O       -4.94975        -6.09426        -0.18408
   C       -4.53199        -3.77381        -0.73219
   C       -4.27445        -2.60890         0.09413
   C       -4.23768        -1.31263        -0.34011
   C       -3.99539        -0.20434         0.49920
   N       -3.79774         0.72648         1.13995
   C       -4.50368        -0.92625        -1.67201
   N       -4.76708        -0.56075        -2.72731
   C       -4.44105        -3.86549        -2.08301
   C       -4.77089        -5.02890        -2.84057
   C       -3.93306        -5.66020        -3.73671
   N       -2.61940        -5.25591        -4.03933
   O       -2.03354        -5.84891        -4.92347
   O       -2.15268        -4.32756        -3.39607
   C       -4.57131        -6.84795        -4.23690
   C       -5.77861        -6.97560        -3.62679
   C       -5.98721        -5.85683        -2.75072
   C       -7.10928        -5.45713        -2.04541
   C       -7.40110        -4.09255        -1.74627
   C       -8.55738        -4.03495        -1.03156
   C       -9.01606        -5.36328        -0.76736
   N      -10.18658        -5.51125         0.00300
   O      -10.89732        -4.52731         0.10710
   O      -10.44126        -6.57460         0.55150
   C       -8.16376        -6.28379        -1.41191
   C       -8.16692        -7.68458        -1.50337
   C       -8.97192        -8.55410        -0.80444
   C       -9.05379        -9.93009        -1.04800
   N       -9.77228       -10.78273        -0.24307
   C      -10.41742       -10.43984         1.00434
   C       -9.40636       -10.27452         2.13475
   C       -9.76782       -12.09744        -0.72142
   O      -10.32733       -13.02382        -0.17304
   C       -8.98754       -12.03071        -1.94719
   C       -8.55832       -10.70864        -2.11704
   C       -7.82805       -10.63495        -3.36935
   O       -7.29723        -9.70678        -3.94254
   N       -7.85709       -11.94325        -3.87104
   C       -7.18788       -12.28798        -5.10476
   C       -5.84807       -12.97345        -4.85254
   C       -8.54525       -12.79794        -3.04537
   C       -8.75651       -14.15616        -3.32196
   C       -9.46971       -14.98468        -2.49374
   C       -9.71225       -16.34459        -2.76546
   C       -9.28700       -17.10884        -3.84330
   C       -9.78369       -18.42860        -3.70841
   C      -10.55993       -18.44901        -2.45215
   C      -10.50604       -17.20925        -1.90213
   C      -11.23137       -19.54911        -1.90503
   N      -11.78803       -20.43647        -1.43432
   C       -9.58747       -19.48665        -4.57443
   C      -10.10333       -20.80463        -4.47144
   C       -9.65689       -21.55742        -5.54286
   C       -8.82631       -20.69491        -6.37501
   C       -8.78193       -19.46025        -5.81219
   C       -8.07786       -18.36488        -6.32491
   N       -7.48944       -17.47574        -6.75333
   C       -9.97341       -22.91283        -5.78599
   C       -9.46743       -23.65954        -6.80879
   C       -9.85316       -24.99848        -7.02190
   C       -9.50853       -25.81572        -8.05982
   C       -9.69973       -27.28763        -7.91509
   O      -10.35880       -27.84787        -7.07152
   C       -8.87002       -27.89218        -8.97498
   C       -8.59835       -29.21047        -9.20305
   C       -7.73386       -29.55971       -10.26441
   C       -7.16086       -28.53000       -11.06633
   C       -6.28949       -28.88359       -12.11606
   C       -6.00296       -30.19750       -12.36003
   C       -6.57230       -31.21533       -11.56780
   C       -7.42017       -30.90453       -10.54177
   F       -6.27269       -32.49363       -11.82932
   F       -5.17499       -30.53163       -13.35705
   C       -7.46723       -27.17362       -10.81097
   C       -8.31706       -26.85872        -9.78445
   C       -8.82869       -25.57193        -9.31287
   C       -8.83010       -24.41384       -10.04654
   C       -9.53806       -23.24105        -9.70865
   N      -10.11599       -22.26902        -9.51158
   C       -8.19257       -24.28214       -11.29917
   N       -7.67719       -24.11182       -12.31014
   H       -3.32882        -1.36365         5.05026
   H       -4.38387        -6.20604         5.17898
   H       -3.63569        -1.33748         2.62878
   H       -4.69235        -6.21147         2.70354
   H       -4.01158        -3.04271        -2.64500
   H       -4.13136        -7.50034        -4.96651
   H       -6.49846        -7.73288        -3.86354
   H       -6.84988        -3.25185        -2.12109
   H       -9.07181        -3.15557        -0.69187
   H       -7.44792        -8.11296        -2.18368
   H       -9.60077        -8.16646        -0.01793
   H      -11.09577       -11.26663         1.23055
   H      -11.00114        -9.52499         0.87698
   H       -8.84328       -11.19444         2.27470
   H       -9.92971       -10.04284         3.05750
   H       -8.71177        -9.46677         1.91719
   H       -7.02505       -11.34546        -5.63432
   H       -7.84174       -12.92175        -5.70919
   H       -5.19007       -12.31453        -4.29126
   H       -5.37628       -13.20974        -5.80173
   H       -5.97811       -13.89543        -4.29052
   H       -8.34490       -14.55287        -4.23834
   H       -9.88483       -14.58448        -1.57751
   H       -8.68139       -16.77414        -4.66107
   H      -10.96578       -16.89045        -0.98516
   H      -10.73679       -21.15652        -3.68075
   H       -8.35441       -20.98372        -7.29483
   H      -10.68959       -23.36593        -5.11162
   H       -8.73027       -23.22564        -7.46660
   H      -10.44408       -25.47336        -6.24473
   H       -9.03533       -29.97625        -8.58049
   H       -5.84799       -28.11767       -12.73437
   H       -7.84727       -31.69483        -9.94454
   H       -7.01152       -26.41679       -11.42909
*
