# ORCA input file
# SCF done       -231.058353598737          0.000904800285
! CAM-B3LYP def2-SVP def2/J RIJCOSX Grid4 TightSCF
%maxcore 5000
%tddft
    Mode sTDDFT
    Ethresh 5.0
    maxcore 5000
end

%pal
  nprocs 6
  end
* xyz 0 1
   C      -15.08130         9.02716        -4.51361
   N      -14.15344         9.92667        -4.93465
   C      -14.29811        10.83257        -6.04566
   C      -15.22670        11.99568        -5.70572
   C      -13.01322         9.92833        -4.09114
   O      -12.05364        10.65117        -4.26727
   C      -13.32181         8.92737        -3.10197
   C      -14.61308         8.39185        -3.39704
   C      -14.90500         7.38931        -2.39479
   O      -15.86375         6.67200        -2.21503
   N      -13.76668         7.38572        -1.55574
   C      -13.71724         6.46353        -0.44666
   C      -12.90520         5.21345        -0.78191
   C      -12.81640         8.29237        -1.97629
   C      -11.54352         8.60808        -1.42996
   C      -10.89624         8.05827        -0.37441
   C       -9.61112         8.48259         0.05867
   S       -8.68891         9.66366        -0.82006
   C       -7.35847         9.55054         0.29033
   C       -7.61860         8.61002         1.27923
   C       -8.89399         8.02954         1.16057
   C       -9.45236         7.06192         2.16641
   N      -10.70264         7.66603         2.72493
   O      -11.74773         7.14591         2.41771
   O      -10.58247         8.63442         3.42952
   C       -8.48716         6.81699         3.32598
   C       -7.05461         6.74333         2.82134
   C       -6.62810         8.11726         2.28978
   N       -5.28750         7.89974         1.67405
   O       -5.25423         7.40921         0.57652
   O       -4.33010         8.17231         2.35589
   C       -6.22481        10.37406         0.04068
   C       -5.27234        10.73664         0.93186
   C       -4.12090        11.49420         0.60184
   S       -3.86635        12.13674        -0.99317
   C       -2.30008        12.74948        -0.54288
   C       -2.01249        12.45730         0.78594
   C       -3.04264        11.76766         1.43536
   C       -2.94135        11.31930         2.85625
   C       -1.81929        12.05201         3.58770
   C       -0.53522        12.02136         2.75705
   O       -0.22963        10.66536         2.50767
   C        1.07980        10.41396         2.07451
   C       -0.73961        12.84030         1.47181
   C       -1.47766        13.42534        -1.47413
   C       -1.85190        13.74469        -2.73797
   C       -1.00931        14.38716        -3.67781
   S        0.62157        14.84106        -3.27583
   C        0.89349        15.50534        -4.85964
   C       -0.25474        15.40677        -5.63705
   C       -1.30799        14.74910        -4.98758
   C       -2.58865        14.40408        -5.68598
   N       -2.91201        12.96172        -5.48119
   O       -2.02868        12.16808        -5.68339
   O       -4.04346        12.69362        -5.16254
   C       -2.44189        14.60023        -7.19967
   C       -1.83323        15.96428        -7.49019
   C       -0.38047        16.01000        -6.99783
   N       -0.01021        17.46471        -6.99344
   O        0.07502        18.02942        -5.93226
   O        0.10687        17.97819        -8.07451
   C        2.13925        16.00333        -5.29124
   C        3.25246        16.17053        -4.53178
   C        4.45174        16.64014        -5.12072
   N        5.61512        16.89639        -4.43200
   C        5.80439        16.79933        -3.00616
   C        5.19440        17.99042        -2.27069
   C        6.64131        17.35561        -5.27726
   O        7.75414        17.63871        -4.87890
   C        6.04473        17.36357        -6.59403
   C        4.70006        16.91517        -6.46307
   C        4.10855        16.90795        -7.77542
   O        2.99572        16.59212        -8.17064
   N        5.12533        17.37088        -8.62147
   C        4.91440        17.47434       -10.04446
   C        5.51069        16.28543       -10.79470
   C        6.28564        17.64118        -7.93104
   C        7.47817        18.13552        -8.55620
   C        8.60559        18.37313        -7.88232
   H      -16.00672         8.89790        -5.04409
   H      -14.67738        10.28274        -6.91243
   H      -13.29596        11.20890        -6.26852
   H      -16.22207        11.63297        -5.45835
   H      -15.30123        12.67046        -6.55378
   H      -14.83603        12.54699        -4.85398
   H      -14.75516         6.17188        -0.25912
   H      -13.33630         6.96458         0.44582
   H      -13.39126         4.66316        -1.58379
   H      -12.84390         4.57262         0.09337
   H      -11.89864         5.47004        -1.10588
   H      -11.05289         9.41083        -1.96898
   H      -11.34165         7.25171         0.18258
   H       -9.75245         6.12577         1.68354
   H       -8.75221         5.89138         3.83853
   H       -8.57739         7.64394         4.03526
   H       -6.98244         6.01090         2.01321
   H       -6.38758         6.43887         3.62925
   H       -6.49097         8.81518         3.12306
   H       -6.15116        10.75718        -0.96922
   H       -5.34415        10.44999         1.96978
   H       -2.73404        10.24528         2.86359
   H       -3.88639        11.48384         3.37833
   H       -1.64114        11.57093         4.54927
   H       -2.09705        13.09277         3.76397
   H        0.28963        12.47870         3.33196
   H        1.19405         9.33167         2.06915
   H        1.81685        10.85470         2.75852
   H        1.26612        10.79399         1.06326
   H        0.10798        12.69328         0.79988
   H       -0.76775        13.90212         1.73526
   H       -0.48328        13.69313        -1.14145
   H       -2.85995        13.50573        -3.04733
   H       -3.43891        14.97376        -5.29400
   H       -3.41857        14.51465        -7.67822
   H       -1.78878        13.81724        -7.59335
   H       -2.41520        16.73281        -6.97338
   H       -1.86161        16.17655        -8.55892
   H        0.29167        15.53384        -7.72064
   H        2.20721        16.24403        -6.34298
   H        3.22989        15.95212        -3.47368
   H        6.88614        16.78235        -2.84508
   H        5.37801        15.85910        -2.64429
   H        5.66237        18.91196        -2.60781
   H        5.35827        17.88766        -1.20146
   H        4.12503        18.05703        -2.45856
   H        5.33160        18.41618       -10.41127
   H        3.82991        17.49193       -10.18696
   H        6.58445        16.22070       -10.63234
   H        5.32201        16.38949       -11.85966
   H        5.05305        15.36186       -10.44857
   H        7.43152        18.31716        -9.62118
   H        8.67643        18.19560        -6.82238
   H        9.48383        18.74639        -8.38006
*
