# ORCA input file
# SCF done       -192.977974761670          0.000432462701
! CAM-B3LYP def2-SVP def2/J RIJCOSX Grid4 TightSCF
%maxcore 5000
%tddft
    Mode sTDDFT
    Ethresh 5.0
    maxcore 5000
end

%pal
  nprocs 6
  end
* xyz 0 1
   C        0.20607        -2.51796         5.23810
   S        1.26180        -2.72564         3.90635
   C        0.24422        -3.94199         3.17437
   C       -0.86451        -4.14067         3.98255
   C       -0.89704        -3.33377         5.15716
   C       -2.06842        -3.59309         5.92032
   C       -2.84754        -4.53934         5.32936
   C       -4.12714        -5.03638         5.84872
   O       -4.64316        -4.66202         6.87275
   O       -4.64779        -5.95977         5.03373
   C       -5.89119        -6.51833         5.42810
   S       -2.21126        -5.17976         3.81321
   C        0.41952        -4.65209         1.97210
   N       -0.52634        -5.54523         1.66756
   C       -0.16193        -6.07488         0.49010
   C        1.09127        -5.48416         0.00393
   C        1.45696        -6.06652        -1.29012
   O        2.41461        -5.80466        -1.99758
   C        0.37955        -7.03571        -1.53476
   C       -0.59190        -7.00905        -0.42935
   N       -1.59278        -7.89170        -0.64786
   C       -1.30596        -8.45560        -1.80092
   C       -0.09090        -7.96913        -2.40786
   C        1.48273        -4.56601         0.95355
   C        2.60251        -3.69388         1.01516
   C        3.53458        -3.61225         0.03660
   C        4.66135        -2.72298         0.00268
   C        5.43023        -2.67871        -1.14639
   C        6.49887        -1.77427        -1.25000
   C        7.37434        -1.51189        -2.30168
   C        7.38006        -2.18930        -3.62247
   C        6.86661        -1.25542        -4.73348
   N        5.48315        -0.89439        -4.47734
   C        8.75453        -2.76788        -4.00427
   N        8.56639        -3.76390        -5.04181
   C        8.26579        -0.47137        -1.85069
   C        9.28481         0.16653        -2.45852
   C       10.14543         1.11565        -1.71204
   C        9.61077         1.54944        -0.38198
   C        8.56859         0.91969         0.20494
   C        7.88831        -0.11264        -0.47168
   C        6.80901        -0.90780        -0.12470
   C        6.03360        -0.99578         1.05209
   C        4.99449        -1.86878         1.10540
   C       11.40015         0.41780        -1.23959
   C       11.46065        -0.87300        -0.86561
   C       12.66019        -1.43884        -0.34922
   N       13.77873        -0.72828        -0.25835
   C       14.69222        -1.54653         0.29077
   C       14.12312        -2.86921         0.58453
   C       15.14132        -3.73673         1.19565
   O       15.02506        -4.88018         1.59146
   C       16.33338        -2.87394         1.22137
   C       16.01716        -1.54556         0.66831
   N       17.10876        -0.74552         0.68641
   C       18.06507        -1.48484         1.20292
   C       17.65117        -2.82240         1.55609
   C       12.81441        -2.82191         0.15964
   C       11.79967        -3.81904         0.18238
   C       11.98978        -5.01924         0.78557
   C       11.07022        -6.09258         0.87187
   S       11.47283        -7.39084         1.96725
   C       10.05026        -8.27554         1.59966
   C        9.30428        -7.61868         0.66847
   C        9.85911        -6.37014         0.23631
   C        9.05891        -5.77990        -0.76989
   C        7.96306        -6.53417        -1.07720
   C        6.97117        -6.26635        -2.11657
   O        6.99704        -5.30294        -2.85161
   O        6.06489        -7.23910        -2.17392
   C        5.05228        -7.14492        -3.16931
   S        7.81934        -8.00761        -0.14589
   H        0.45572        -1.80830         6.00179
   H       -2.32251        -3.11077         6.84626
   H       -6.16733        -7.22213         4.64758
   H       -6.64499        -5.73422         5.52526
   H       -5.78970        -7.02824         6.38841
   H       -1.95554        -9.20899        -2.21164
   H        0.31612        -8.29804        -3.34391
   H        2.66860        -3.06816         1.89389
   H        3.41787        -4.24933        -0.83073
   H        5.19700        -3.33371        -1.97199
   H        6.69600        -3.03994        -3.56508
   H        7.02236        -1.77672        -5.69080
   H        7.45071        -0.33080        -4.74174
   H        4.89701        -1.72243        -4.50208
   H        5.14649        -0.25547        -5.18883
   H        9.22945        -3.17268        -3.09345
   H        9.40814        -1.98894        -4.40567
   H        7.99384        -4.51547        -4.66847
   H        9.45839        -4.16163        -5.31695
   H        9.57252        -0.04290        -3.47757
   H       10.42060         1.96960        -2.33766
   H       10.14676         2.34017         0.11792
   H        8.22787         1.22072         1.18499
   H        6.27104        -0.36544         1.89666
   H        4.40243        -1.93177         2.00523
   H       12.28542         1.02590        -1.12441
   H       10.59136        -1.51064        -0.93903
   H       19.05366        -1.07908         1.33110
   H       18.27799        -3.57793         1.98721
   H       10.85328        -3.58315        -0.28228
   H       12.93647        -5.19594         1.28182
   H        9.85231        -9.21333         2.07682
   H        9.26889        -4.85427        -1.27343
   H        4.16701        -6.66095        -2.75248
   H        4.81499        -8.16374        -3.46855
   H        5.41731        -6.56821        -4.02117
*
