# ORCA input file
# SCF done       -179.091506745045          0.000676095681
! CAM-B3LYP def2-SVP def2/J RIJCOSX Grid4 TightSCF
%maxcore 5000
%tddft
    Mode sTDDFT
    Ethresh 5.0
    maxcore 5000
end

%pal
  nprocs 6
  end
* xyz 0 1
   C        3.14221       -15.21285        -5.70933
   C        3.75384       -13.96972        -5.74501
   C        3.71553       -13.06439        -4.61494
   N        4.32703       -11.88046        -4.70514
   C        4.95066       -11.54998        -5.81658
   C        4.98170       -12.44512        -6.93514
   N        4.39807       -13.61184        -6.88022
   C        5.65695       -12.05464        -8.12031
   N        6.21149       -11.69351        -9.05534
   C        5.58929       -10.29122        -5.88484
   N        6.11314        -9.27320        -5.95581
   C        3.03776       -13.39981        -3.40431
   C        2.42155       -14.68175        -3.39551
   C        2.48077       -15.56901        -4.53982
   N        1.83751       -16.71996        -4.31727
   S        1.22653       -16.69366        -2.83588
   N        1.73697       -15.23273        -2.39383
   C        2.97070       -12.52411        -2.29438
   C        2.30025       -12.77059        -1.09968
   C        2.44605       -11.66615        -0.25906
   C        3.21206       -10.68840        -0.88109
   C        3.60970       -11.15629        -2.22887
   C        3.34468        -9.57225        -0.04079
   C        2.66133        -9.80642         1.13652
   C        2.03148       -11.18407         1.08436
   C        2.50882        -8.91959         2.24956
   C        1.72324        -9.27280         3.33287
   C        1.52141        -8.38085         4.39977
   C        0.75917        -8.47883         5.55961
   C       -0.06429        -9.62090         6.05067
   C       -1.32979        -9.80349         5.19022
   N       -2.25406        -8.70927         5.43987
   C        0.72882       -10.93671         6.12887
   N       -0.03401       -11.92251         6.87745
   C        0.85642        -7.20464         6.22695
   C        0.24879        -6.73202         7.33163
   C        0.42993        -5.32770         7.78433
   C        1.43053        -4.53918         6.98969
   C        2.03890        -5.03078         5.89633
   C        1.75827        -6.34507         5.44929
   C        2.15287        -7.06655         4.34409
   C        2.98544        -6.74127         3.24705
   C        3.15497        -7.63409         2.24325
   C        0.76479        -5.21078         9.24642
   C        1.35384        -6.17639         9.96535
   C        1.68888        -6.07783        11.35130
   C        1.47122        -5.03181        12.21756
   C        1.94826        -5.39185        13.49228
   C        2.47757        -6.67356        13.46046
   C        2.35933        -7.21818        12.08298
   C        2.94071        -7.03265        14.73124
   C        2.71538        -5.98067        15.61011
   C        2.05944        -4.84324        14.86280
   C        3.03906        -5.96428        16.99062
   C        2.78195        -4.84175        17.83188
   C        3.11685        -4.84870        19.24089
   N        2.85501        -3.76417        20.00673
   C        2.30062        -2.71921        19.45607
   C        1.97006        -2.70837        18.06047
   N        2.21582        -3.75324        17.30131
   C        1.37104        -1.57157        17.47081
   N        0.88283        -0.64416        17.00572
   C        2.01955        -1.57491        20.24666
   N        1.77084        -0.62961        20.84351
   C        3.70630        -5.94635        19.84842
   C        3.96893        -7.05413        19.05176
   C        3.64397        -7.07427        17.63946
   N        3.98446        -8.23803        17.08422
   S        4.63570        -9.19208        18.20213
   N        4.52879        -8.20051        19.45414
   H        3.18299       -15.86966        -6.56054
   H        1.75838       -13.67091        -0.88118
   H        4.69145       -11.21286        -2.35300
   H        3.24356       -10.50356        -3.02170
   H        3.88722        -8.68077        -0.29533
   H        0.94533       -11.13389         1.17669
   H        2.40659       -11.82598         1.88342
   H        1.23320       -10.23286         3.34924
   H       -0.40020        -9.38896         7.06758
   H       -1.74885       -10.79551         5.41902
   H       -1.05764        -9.77356         4.13313
   H       -2.65722        -8.79692         6.36716
   H       -3.01523        -8.72831         4.77112
   H        1.72000       -10.72476         6.56485
   H        0.88398       -11.34252         5.12818
   H       -0.12930       -11.63550         7.84634
   H        0.43709       -12.82011         6.86678
   H       -0.43521        -7.33460         7.91313
   H       -0.54994        -4.83726         7.64635
   H        1.63058        -3.53896         7.34200
   H        2.74089        -4.42640         5.34022
   H        3.47138        -5.77702         3.21821
   H        3.78666        -7.38294         1.40696
   H        0.53969        -4.25635         9.69915
   H        1.59881        -7.11496         9.48276
   H        1.01086        -4.09242        11.97349
   H        1.75613        -8.12707        12.04292
   H        3.33045        -7.45182        11.64222
   H        3.39693        -7.96574        15.00165
   H        2.66340        -3.93653        14.90252
   H        1.09046        -4.58610        15.29099
   H        3.94673        -5.93089        20.89706
*
