# ORCA input file
# SCF done       -226.433004459286          0.000349157430
! CAM-B3LYP def2-SVP def2/J RIJCOSX Grid4 TightSCF
%maxcore 5000
%tddft
    Mode sTDDFT
    Ethresh 5.0
    maxcore 5000
end

%pal
  nprocs 6
  end
* xyz 0 1
   C       -0.87585       -11.88265         0.98942
   C       -1.71765       -12.76912         0.37705
   F       -1.96829       -13.95510         0.96029
   C       -2.33930       -12.49167        -0.84791
   C       -2.09665       -11.29126        -1.45583
   C       -1.23708       -10.34015        -0.86915
   C       -0.61331       -10.64229         0.37658
   C        0.26072        -9.70791         0.98022
   C        0.49612        -8.51275         0.35783
   C       -0.14136        -8.20892        -0.88043
   C       -0.98287        -9.09520        -1.48796
   C        0.25499        -6.85481        -1.31539
   O       -0.04398        -6.28183        -2.33801
   C        1.05813        -6.30785        -0.18793
   C        1.36409        -7.39448         0.71275
   C        2.45411        -7.46505         1.54382
   C        3.43977        -6.45931         1.59317
   N        4.27700        -5.67356         1.61181
   C        2.75666        -8.58093         2.34749
   N        3.02947        -9.45694         3.03753
   C        1.28326        -4.96625        -0.10767
   C        1.60465        -4.17579         1.01519
   S        1.32881        -4.65391         2.66430
   C        1.83867        -3.10646         3.25301
   C        1.85198        -2.73503         4.68161
   O        2.14909        -1.62774         5.03883
   O        1.51277        -3.68849         5.55811
   C        2.20501        -2.26670         2.23420
   C        2.06655        -2.85269         0.96195
   O        2.31249        -2.29821        -0.23131
   C        3.02272        -1.14109        -0.33133
   C        3.05489        -0.48631        -1.49894
   C        3.77429         0.73356        -1.77605
   C        3.56388         1.36195        -2.98274
   C        4.21525         2.57527        -3.28819
   C        4.16144         3.40923        -4.39834
   C        3.36300         3.25861        -5.65043
   C        3.79043         2.00951        -6.43832
   N        5.14532         2.20394        -6.92746
   C        1.84191         3.24894        -5.35746
   N        1.35767         4.42627        -4.66918
   C        5.03010         4.52994        -4.11978
   C        5.32007         5.62861        -4.84135
   C        6.21790         6.69251        -4.30846
   C        6.83009         6.38904        -2.98308
   C        6.54579         5.27585        -2.28193
   C        5.63140         4.32555        -2.79545
   C        5.12781         3.14068        -2.30014
   C        5.34414         2.46170        -1.07885
   C        4.68800         1.30207        -0.82815
   C        5.40786         7.96628        -4.28852
   C        4.80970         8.44447        -3.19396
   C        4.06798         9.67391        -3.13920
   S        2.90282         9.94094        -1.89348
   C        2.53425        11.52824        -2.49530
   C        1.53480        12.42806        -1.89460
   O        1.30534        13.51167        -2.35881
   O        0.89289        11.98045        -0.80605
   C        3.29105        11.83302        -3.59745
   C        4.16017        10.79077        -3.96501
   O        5.07805        10.77176        -4.96436
   C        5.31614        11.79739        -5.78560
   C        6.32369        11.71398        -6.69059
   C        7.12715        10.55092        -6.76507
   C        8.15298        10.20646        -7.59064
   C        8.52544         8.76840        -7.65143
   O        8.15855         7.89909        -6.88590
   C        9.35289         8.62482        -8.85884
   C        9.86606         7.49145        -9.42199
   C       10.60262         7.59078       -10.62297
   C       10.78706         8.87011       -11.22396
   C       11.51251         8.96202       -12.42743
   C       12.02571         7.82632       -12.98991
   C       11.85774         6.55985       -12.41309
   C       11.15465         6.45240       -11.24566
   F       12.71866         7.91166       -14.13887
   C       10.25014        10.02824       -10.61448
   C        9.54993         9.90956        -9.44469
   C        8.92393        10.91604        -8.58824
   C        9.19871        12.25726        -8.62223
   C        8.80923        13.17667        -7.62688
   N        8.56388        13.95937        -6.82390
   C       10.00178        12.87052        -9.60701
   N       10.63096        13.42536       -10.39022
   H       -0.41168       -12.13137         1.93096
   H       -2.99404       -13.22967        -1.28345
   H       -2.56403       -11.05490        -2.39990
   H        0.71579        -9.95685         1.92602
   H       -1.44940        -8.85129        -2.43063
   H        1.11043        -4.40450        -1.02101
   H        1.31775        -4.54127         5.14626
   H        2.52490        -1.26023         2.43360
   H        3.55080        -0.81926         0.55386
   H        2.47037        -0.89452        -2.31277
   H        2.87928         0.92227        -3.69297
   H        3.57159         4.11784        -6.29712
   H        3.13750         1.89136        -7.30817
   H        3.67927         1.11680        -5.80413
   H        5.44499         1.40339        -7.47278
   H        5.78292         2.30439        -6.14340
   H        1.58381         2.38374        -4.74488
   H        1.30107         3.16997        -6.30455
   H        1.56747         5.26179        -5.20539
   H        1.81374         4.51479        -3.76665
   H        4.89507         5.80522        -5.81984
   H        7.02297         6.85275        -5.04396
   H        7.51791         7.12954        -2.60390
   H        7.00935         5.09177        -1.32353
   H        6.03181         2.87667        -0.35670
   H        4.86218         0.78253         0.10010
   H        5.29180         8.46078        -5.24011
   H        4.86483         7.88875        -2.26657
   H        1.16811        11.09547        -0.53089
   H        3.19687        12.78323        -4.09015
   H        4.69103        12.67750        -5.71581
   H        6.47761        12.54480        -7.35610
   H        6.83375         9.74992        -6.09463
   H        9.71039         6.52903        -8.95774
   H       11.66435         9.92106       -12.89752
   H       12.28593         5.69952       -12.90250
   H       11.01146         5.48757       -10.78286
   H       10.39984        10.98109       -11.09657
*
