# ORCA input file
# SCF done       -209.478751679947          0.001121623339
! CAM-B3LYP def2-SVP def2/J RIJCOSX Grid4 TightSCF
%maxcore 5000
%tddft
    Mode sTDDFT
    Ethresh 5.0
    maxcore 5000
end

%pal
  nprocs 6
  end
* xyz 0 1
   C        9.47863        -2.98417        -7.32683
   C        9.43145        -4.18230        -7.98362
   F        9.81466        -4.24749        -9.27177
   C        8.99540        -5.36211        -7.36508
   C        8.60272        -5.31634        -6.05634
   C        8.63282        -4.10790        -5.33024
   C        9.07731        -2.91813        -5.97829
   C        9.11105        -1.69263        -5.27283
   C        8.71965        -1.66311        -3.96186
   C        8.29156        -2.85861        -3.31405
   C        8.23961        -4.05255        -3.97425
   C        7.97436        -2.56159        -1.90507
   O        7.52458        -3.30668        -1.06457
   C        8.37981        -1.14018        -1.70761
   C        8.63592        -0.56228        -3.00904
   C        8.59538         0.76912        -3.32446
   C        8.79040         1.27991        -4.62336
   N        8.94921         1.74740        -5.65923
   C        8.26786         1.76837        -2.38720
   N        7.97050         2.59737        -1.65013
   C        8.53328        -0.66584        -0.44507
   C        9.26046         0.47995         0.00728
   C        8.99282         1.12222         1.22735
   N        9.83516         2.01546         1.80522
   C       10.89540         2.45364         1.21353
   C       11.22308         1.99578        -0.08516
   C       10.40447         0.96753        -0.67680
   N       10.96310         0.64474        -1.82976
   O       12.04202         1.42740        -1.94821
   N       12.21561         2.23976        -0.91505
   C        7.77477         0.87626         1.98173
   C        7.80853         1.02484         3.35236
   C        6.67531         0.72198         4.12931
   C        6.45781         0.70909         5.50553
   C        7.37653         1.02276         6.63117
   C        8.39185        -0.13649         6.88571
   N        9.31938        -0.44986         5.83409
   C        8.07972         2.37893         6.46844
   N        7.07875         3.40796         6.25477
   C        5.09292         0.27518         5.70170
   C        4.39366         0.03799         6.82553
   C        2.96297        -0.37963         6.78236
   C        2.41473        -0.59400         5.40614
   C        3.14050        -0.38284         4.29148
   C        4.48367         0.04964         4.38383
   C        5.45493         0.31335         3.43945
   C        5.42771         0.25672         2.02731
   C        6.55754         0.51848         1.32272
   C        2.17092         0.71621         7.44741
   C        1.34777         0.52330         8.48198
   C        0.63677         1.57312         9.16355
   C        1.08413         2.89139         9.28179
   N        0.36153         3.89031         9.86400
   C       -0.79403         3.68109        10.39986
   C       -1.34692         2.37730        10.41721
   C       -0.60881         1.31258         9.78602
   N       -1.31668         0.20766         9.93190
   O       -2.40928         0.56017        10.60407
   N       -2.45260         1.85204        10.90531
   C        2.41640         3.26727         8.87781
   C        2.84833         4.50088         8.52994
   C        4.29812         4.83246         8.56794
   O        5.21817         4.04242         8.60973
   C        4.35462         6.30242         8.60537
   C        5.43418         7.12060         8.78535
   C        5.24112         8.51898         8.83436
   C        3.92392         9.04851         8.69730
   C        3.73709        10.44296         8.75937
   C        4.81918        11.25776         8.94639
   C        6.12191        10.75726         9.08056
   C        6.32121         9.40595         9.02404
   F        4.64304        12.58855         9.00606
   C        2.82512         8.18044         8.50053
   C        3.03734         6.82927         8.45042
   C        2.11516         5.72042         8.24098
   C        0.87177         5.79600         7.67983
   C        0.15245         4.65638         7.26299
   N       -0.42280         3.74956         6.85777
   C        0.21696         7.00883         7.38211
   N       -0.35361         7.97500         7.14164
   H        9.81762        -2.09520        -7.83538
   H        8.98021        -6.27842        -7.93365
   H        8.26396        -6.21224        -5.55797
   H        9.45971        -0.80804        -5.78192
   H        7.90609        -4.94612        -3.46783
   H        8.13225        -1.30589         0.33610
   H       11.52640         3.15153         1.74356
   H        8.73384         1.34602         3.80055
   H        6.77356         1.09541         7.54261
   H        7.81880        -1.04338         7.09985
   H        8.97374         0.11862         7.77590
   H        9.92194         0.33613         5.62297
   H        8.83891        -0.73215         4.98791
   H        8.73828         2.38061         5.59784
   H        8.70468         2.54779         7.36455
   H        6.47314         3.48670         7.06768
   H        7.52419         4.30787         6.11440
   H        4.81938         0.17436         7.81058
   H        2.83963        -1.29897         7.37107
   H        1.38506        -0.91188         5.35710
   H        2.70958        -0.55162         3.31564
   H        4.50655         0.00731         1.52287
   H        6.54155         0.51252         0.24330
   H        2.27751         1.69260         6.99572
   H        1.14066        -0.47619         8.84301
   H       -1.31182         4.52419        10.83265
   H        3.18020         2.50270         8.97713
   H        6.42560         6.70704         8.89534
   H        2.74861        10.86268         8.65711
   H        6.93681        11.44850         9.22588
   H        7.31581         8.99841         9.12601
   H        1.83779         8.60439         8.40564
*
