# ORCA input file
# SCF done       -210.006795812605          0.000791935592
! CAM-B3LYP def2-SVP def2/J RIJCOSX Grid4 TightSCF
%maxcore 5000
%tddft
    Mode sTDDFT
    Ethresh 5.0
    maxcore 5000
end

%pal
  nprocs 6
  end
* xyz 0 1
   C       -9.27958         0.73365         3.12969
   C      -10.41885         0.49323         2.37695
   C      -10.58081        -0.69760         1.68044
   C       -9.60503        -1.68278         1.70997
   C       -8.46183        -1.45591         2.45829
   C       -8.29883        -0.24550         3.17550
   C       -7.02393        -0.28045         3.87282
   C       -6.38270         0.75750         4.48736
   C       -6.91852         2.05961         4.59807
   N       -7.30967         3.13043         4.72140
   C       -5.07561         0.67340         5.01531
   N       -4.00375         0.66274         5.42590
   C       -6.52608        -1.65081         3.74501
   C       -7.27693        -2.27485         2.65332
   C       -6.82837        -3.27551         1.84494
   C       -5.52814        -3.81999         1.94478
   N       -4.45225        -4.21753         1.94783
   C       -7.56196        -3.78675         0.75237
   N       -8.12517        -4.22196        -0.14650
   C       -5.67473        -2.24425         4.61608
   C       -5.41799        -3.64490         4.72799
   N       -6.32186        -4.56614         4.43619
   C       -5.76738        -5.74970         4.78418
   C       -4.43547        -5.55814         5.36099
   C       -3.81532        -6.84684         5.70087
   O       -2.72657        -7.05475         6.18658
   C       -4.85408        -7.81354         5.28275
   C       -6.03124        -7.09649         4.73576
   N       -6.97649        -7.97454         4.32147
   C       -6.47025        -9.15907         4.55741
   C       -5.14171        -9.13092         5.14684
   C       -4.18352        -4.21061         5.30974
   C       -2.99822        -3.52988         5.69258
   C       -2.57269        -2.36177         5.15999
   C       -1.35364        -1.70303         5.47293
   S       -0.87681        -0.37296         4.46353
   C        0.64991        -0.19811         5.29024
   C        0.71868        -1.08589         6.36060
   C       -0.39126        -1.94691         6.44507
   S       -0.54762        -3.13287         7.74521
   C        0.77066        -4.31389         7.27453
   C        0.39389        -5.12231         6.04953
   S        1.98869        -1.12072         7.58313
   C        1.92608         0.60117         8.19713
   C        0.57044         0.92954         8.78735
   C        1.59655         0.70580         4.75335
   C        2.93381         0.69782         5.01326
   C        3.88437         1.55298         4.40145
   C        3.60979         2.72566         3.76425
   C        4.56927         3.56049         3.14268
   N        4.34174         4.86777         3.04284
   C        5.45164         5.40210         2.51486
   C        6.45203         4.36756         2.20335
   C        7.66641         4.98045         1.63485
   O        8.68603         4.43150         1.26404
   C        7.33840         6.40983         1.63464
   C        5.97875         6.62864         2.17169
   N        5.66737         7.94295         2.16118
   C        6.72529         8.54325         1.66190
   C        7.80234         7.64689         1.31032
   C        5.88449         3.17017         2.57022
   C        6.36031         1.84790         2.35815
   C        7.60339         1.59553         1.87435
   C        8.09070         0.28719         1.65160
   C        9.38874        -0.01829         1.35991
   C        9.84786        -1.27146         0.77160
   C        9.20094        -2.47707         0.80077
   C        7.98559        -2.72039         1.47531
   N        7.00625        -2.98371         2.01379
   C        9.69172        -3.65433         0.19688
   N       10.03266        -4.64414        -0.27324
   C       11.13449        -0.99123         0.15073
   C       11.52831         0.32600         0.48402
   C       12.71315         0.85182        -0.00323
   C       13.50366         0.05667        -0.81957
   C       13.12498        -1.24025        -1.13780
   C       11.94032        -1.77777        -0.65794
   C       10.52894         0.89396         1.37651
   C       10.71636         1.94121         2.23494
   C        9.86321         2.23601         3.32256
   N        9.25209         2.45787         4.26807
   C       11.86401         2.76325         2.22810
   N       12.77712         3.45661         2.26217
   H       -9.17064         1.65940         3.67129
   H      -11.19302         1.24394         2.33676
   H      -11.48073        -0.86155         1.10796
   H       -9.74333        -2.60707         1.17272
   H       -5.19110        -1.63563         5.36907
   H       -7.03178       -10.04656         4.32245
   H       -4.55794        -9.99198         5.40540
   H       -2.38345        -4.05103         6.41239
   H       -3.14097        -1.89962         4.36224
   H        0.88330        -4.94980         8.15119
   H        1.68458        -3.74019         7.12408
   H       -0.49905        -5.71721         6.23072
   H        1.20980        -5.79759         5.80066
   H        0.21482        -4.47172         5.19476
   H        2.19129         1.27421         7.38254
   H        2.70688         0.62948         8.95668
   H       -0.20414         0.90216         8.02293
   H        0.59293         1.92840         9.21790
   H        0.30994         0.21810         9.56799
   H        1.20782         1.38512         4.00631
   H        3.33105        -0.06303         5.67182
   H        4.91797         1.25964         4.52594
   H        2.61234         3.14222         3.79734
   H        6.73596         9.61307         1.54591
   H        8.74538         7.93545         0.89011
   H        5.70195         1.02269         2.59151
   H        8.24009         2.43129         1.62159
   H        7.35881        -0.50971         1.64453
   H       13.01322         1.86004         0.23184
   H       14.42644         0.45495        -1.21282
   H       13.75830        -1.84108        -1.77242
   H       11.65763        -2.78436        -0.91961
*
