# ORCA input file
# SCF done       -221.859949423421          0.000697730379
! CAM-B3LYP def2-SVP def2/J RIJCOSX Grid4 TightSCF
%maxcore 5000
%tddft
    Mode sTDDFT
    Ethresh 5.0
    maxcore 5000
end

%pal
  nprocs 6
  end
* xyz 0 1
   C       -1.58190        -9.56018         6.97637
   C       -1.06731       -10.82917         6.75168
   C       -1.18552       -11.44123         5.51271
   C       -1.80871       -10.79530         4.45494
   C       -2.32160        -9.52814         4.66793
   C       -2.22048        -8.90847         5.93355
   C       -2.89237        -7.61420         5.87878
   C       -2.96528        -6.71187         6.91039
   C       -2.36528        -6.90126         8.17217
   N       -1.91054        -6.98449         9.22354
   C       -3.61992        -5.46427         6.87395
   N       -4.12996        -4.43608         6.93255
   C       -3.49857        -7.50934         4.56284
   C       -2.99906        -8.61193         3.76360
   C       -2.94986        -8.67483         2.39303
   C       -3.27762        -7.60379         1.54071
   N       -3.45658        -6.74544         0.79835
   C       -2.44181        -9.76955         1.66638
   N       -2.06161       -10.62688         1.00410
   C       -4.44460        -6.56897         4.21880
   C       -5.36836        -6.58905         3.16542
   S       -5.90546        -5.03474         2.58379
   C       -6.72042        -5.70272         1.23333
   C       -6.62177        -7.10740         1.23335
   C       -5.92283        -7.61477         2.37358
   C       -5.87293        -9.01846         2.56006
   C       -5.54167        -9.69144         3.84002
   O       -5.07564       -10.80057         3.92868
   O       -5.92219        -8.96315         4.90115
   C       -5.76151        -9.56907         6.17512
   C       -6.28554        -9.84422         1.53405
   C       -6.80478        -9.32711         0.34292
   C       -7.01644        -7.98066         0.20232
   C       -7.34107        -4.85307         0.25433
   C       -8.47321        -5.25397        -0.42095
   C       -9.01434        -4.44435        -1.43889
   C      -10.08012        -4.63141        -2.30708
   C      -11.12812        -5.68573        -2.44060
   C      -10.83495        -7.04524        -1.80313
   N       -9.54307        -7.57311        -2.22303
   C      -12.48116        -5.15611        -1.90097
   N      -13.57273        -5.86454        -2.55084
   C      -10.08835        -3.48937        -3.19789
   C      -10.86684        -3.21365        -4.25832
   C      -10.65391        -1.98349        -5.07980
   C       -9.62244        -1.04796        -4.54095
   C       -8.84105        -1.35183        -3.48714
   C       -9.01054        -2.57853        -2.80023
   C       -8.36072        -3.17044        -1.73758
   C       -7.24877        -2.75274        -0.96971
   C       -6.76172        -3.56542        -0.00172
   C      -11.99020        -1.33246        -5.31761
   C      -12.92871        -1.90200        -6.08110
   C      -14.23403        -1.37042        -6.31116
   S      -14.48553         0.33169        -6.24518
   C      -16.12070         0.21393        -6.81979
   C      -16.46764        -1.14169        -7.00631
   C      -15.40211        -2.04291        -6.69772
   C      -15.63896        -3.44238        -6.79627
   C      -14.71551        -4.46607        -6.25282
   O      -14.02443        -4.33435        -5.26584
   O      -14.77606        -5.60839        -6.94206
   C      -13.99393        -6.68871        -6.45083
   C      -16.84957        -3.87427        -7.29469
   C      -17.86112        -2.97528        -7.65777
   C      -17.69157        -1.62647        -7.49546
   C      -16.99170         1.30189        -6.95825
   C      -16.70832         2.64675        -6.98447
   C      -17.66199         3.68772        -6.63539
   C      -19.02713         3.57715        -6.55895
   C      -19.76665         2.41584        -6.86051
   N      -20.42600         1.50461        -7.09646
   C      -19.88841         4.63794        -6.20963
   N      -20.64710         5.45428        -5.93413
   C      -16.88708         4.89583        -6.37433
   C      -15.53457         4.64998        -6.70258
   C      -14.57404         5.63158        -6.53089
   C      -14.96981         6.86240        -6.02795
   C      -16.29811         7.10992        -5.71361
   C      -17.26946         6.13379        -5.88389
   C      -15.43484         3.30029        -7.23647
   C      -14.45525         2.85227        -8.08555
   C      -13.26564         3.55556        -8.35660
   N      -12.26751         4.07095        -8.59350
   C      -14.57843         1.67790        -8.85547
   N      -14.67098         0.75445        -9.53151
   H       -1.48541        -9.10485         7.94808
   H       -0.57364       -11.34758         7.55962
   H       -0.79001       -12.43477         5.36698
   H       -1.91023       -11.28316         3.49998
   H       -4.49598        -5.68217         4.83780
   H       -5.80778        -8.76570         6.90671
   H       -4.80539       -10.09389         6.23282
   H       -6.56652       -10.28537         6.35124
   H       -6.20653       -10.91170         1.67654
   H       -7.06848       -10.00477        -0.45402
   H       -7.45638        -7.58560        -0.69944
   H       -8.95311        -6.17986        -0.16345
   H      -11.27397        -5.85776        -3.51486
   H      -11.67985        -7.70136        -2.06667
   H      -10.82217        -6.95571        -0.71325
   H       -9.48505        -7.58109        -3.23642
   H       -9.44701        -8.53255        -1.90577
   H      -12.52783        -4.06722        -2.05535
   H      -12.52972        -5.34390        -0.82536
   H      -13.70719        -5.47881        -3.48186
   H      -14.43683        -5.71647        -2.04079
   H      -11.67896        -3.85625        -4.56663
   H      -10.29331        -2.33905        -6.06114
   H       -9.51449        -0.11121        -5.06634
   H       -8.08411        -0.66052        -3.14700
   H       -6.79140        -1.79626        -1.17370
   H       -5.89919        -3.27595         0.57959
   H      -12.18937        -0.41482        -4.78273
   H      -12.71279        -2.83772        -6.57716
   H      -14.27550        -6.93190        -5.42385
   H      -12.93263        -6.43123        -6.47422
   H      -14.19256        -7.52828        -7.11137
   H      -17.03277        -4.93422        -7.37657
   H      -18.79225        -3.36055        -8.04269
   H      -18.48743        -0.94112        -7.74085
   H      -18.03817         1.02913        -6.95614
   H      -13.53875         5.44649        -6.76814
   H      -14.23206         7.63610        -5.87991
   H      -16.58425         8.07619        -5.32728
   H      -18.29565         6.34474        -5.63189
*
