# ORCA input file
# SCF done       -242.715723763740          0.000970529501
! CAM-B3LYP def2-SVP def2/J RIJCOSX Grid4 TightSCF
%maxcore 5000
%tddft
    Mode sTDDFT
    Ethresh 5.0
    maxcore 5000
end

%pal
  nprocs 6
  end
* xyz 0 1
   C        9.17260        -0.08851         3.48633
   F       10.16635         0.72681         3.82048
   C        8.26579         0.27621         2.48682
   C        8.49645         1.55030         1.70445
   O        9.59473         1.97794         1.51318
   O        7.41278         2.17236         1.24079
   C        7.23323        -0.62242         2.21658
   F        6.33381        -0.33677         1.25555
   C        7.10714        -1.82205         2.89703
   F        6.12030        -2.65885         2.54603
   C        7.99965        -2.18398         3.91175
   C        9.03519        -1.28433         4.17974
   F        9.91214        -1.57238         5.14897
   C        7.89304        -3.44808         4.62031
   C        8.91772        -4.32088         4.83123
   C        8.37692        -5.52019         5.43324
   C        9.13548        -6.63044         5.82298
   N        9.75190        -7.54865         6.13151
   C        7.01797        -5.38225         5.55267
   C        6.65452        -4.07579         5.08604
   C        5.42421        -3.47101         5.23100
   C        4.12883        -4.15280         5.47185
   C        3.21010        -3.18337         5.77327
   C        3.85995        -1.90222         5.70782
   C        5.17833        -2.07425         5.34422
   C        3.23237        -0.67688         5.96481
   N        2.71508         0.32751         6.16901
   C        3.90236        -5.53874         5.25319
   C        2.83822        -6.22802         5.73404
   C        2.57703        -7.62222         5.52870
   C        1.60882        -8.24101         6.30522
   C        1.34906        -9.61005         6.15901
   C        0.46676       -10.45552         6.83460
   C       -0.44927       -10.06567         7.94039
   C       -1.92598       -10.33143         7.57828
   N       -2.76254        -9.41299         8.31843
   C       -0.04903       -10.75540         9.25859
   N       -0.82144       -10.21931        10.36810
   C        0.63221       -11.77011         6.26503
   C        0.04267       -12.95309         6.53539
   C        0.44914       -14.20134         5.83958
   C        1.40028       -14.00554         4.70294
   C        1.98230       -12.82052         4.43918
   C        1.64821       -11.67968         5.20543
   C        2.08230       -10.36799         5.15900
   C        3.04858        -9.71486         4.36275
   C        3.28809        -8.39156         4.55075
   C        1.16364       -15.07706         6.85100
   C        0.90672       -16.37142         7.02801
   C        1.62465       -17.20926         7.96214
   C        2.09361       -16.84993         9.18583
   C        2.65473       -18.02347         9.83234
   C        3.24955       -18.01717        11.09932
   N        3.71850       -18.00433        12.14761
   C        2.49034       -19.10442         9.01167
   C        1.86170       -18.65211         7.79735
   C        1.67282       -19.38163         6.64818
   C        1.71623       -20.85435         6.48595
   C        1.79647       -21.11285         5.14670
   C        1.75203       -19.86292         4.42976
   C        1.62761       -18.83146         5.32853
   C        1.82482       -19.73445         3.03687
   N        1.87508       -19.63229         1.89438
   C        1.56300       -21.85637         7.49045
   C        0.96414       -21.68891         8.68907
   C        0.81745       -22.69160         9.71359
   C        0.11737       -22.36187        10.88719
   C       -0.05030       -23.25190        11.92409
   C        0.49372       -24.52976        11.81409
   C        1.18507       -24.86739        10.63933
   C        1.35733       -23.97868         9.60439
   S        1.76106       -26.51838        10.71547
   C        1.03492       -26.71052        12.29556
   C        1.08635       -27.88103        13.01393
   C        1.80025       -28.99874        12.58471
   C        2.04629       -30.16717        13.26515
   C        1.87632       -30.55805        14.63782
   C        1.80467       -29.75099        15.75134
   C        1.67880       -30.23183        17.07084
   N        1.55638       -30.54199        18.17007
   C        1.92666       -28.35192        15.76149
   N        2.03480       -27.20958        15.85239
   C        2.00115       -32.01960        14.69059
   C        2.41761       -32.48671        13.43130
   C        2.51560       -31.34527        12.49870
   O        2.87059       -31.36090        11.33925
   C        2.65259       -33.82603        13.19564
   C        2.45820       -34.72046        14.23982
   C        2.03268       -34.26989        15.48000
   C        1.80131       -32.92118        15.72254
   N        0.44588       -25.55852        12.72054
   C       -0.08083       -25.43371        14.05709
   H        6.57712         1.70695         1.38092
   H        9.95079        -4.18408         4.57280
   H        6.35926        -6.07741         6.03653
   H        2.16314        -3.31538         5.96936
   H        5.91472        -1.29583         5.27794
   H        4.64677        -6.04915         4.66006
   H        2.13964        -5.71104         6.37911
   H        1.06239        -7.66207         7.03595
   H       -0.36785        -8.98547         8.09540
   H       -2.16194       -11.39141         7.76569
   H       -2.07146       -10.13884         6.50984
   H       -2.63921        -9.58056         9.31284
   H       -3.73958        -9.53513         8.07972
   H        1.04053       -10.63723         9.39161
   H       -0.25945       -11.82624         9.19690
   H       -0.58753        -9.24200        10.51394
   H       -0.60284       -10.71877        11.22354
   H       -0.70749       -13.06127         7.30490
   H       -0.44177       -14.74024         5.49380
   H        1.63939       -14.88685         4.12763
   H        2.69192       -12.72074         3.63122
   H        3.58836       -10.27362         3.61287
   H        4.01813        -7.89346         3.93282
   H        1.96768       -14.59245         7.38541
   H        0.12199       -16.85248         6.45732
   H        2.04653       -15.87823         9.64057
   H        2.86374       -20.09420         9.18696
   H        1.83762       -22.07795         4.67734
   H        1.65201       -17.78661         5.08746
   H        1.90156       -22.83983         7.19176
   H        0.53490       -20.72468         8.92787
   H       -0.30261       -21.37131        10.97834
   H       -0.60174       -22.95481        12.80159
   H        1.90545       -24.28568         8.72959
   H        0.55061       -27.92749        13.94599
   H        2.17659       -28.98755        11.56530
   H        2.97864       -34.15481        12.22084
   H        2.63596       -35.77416        14.08545
   H        1.87699       -34.97915        16.27916
   H        1.46494       -32.60243        16.69559
   H        0.62587       -25.86125        14.77498
   H       -1.03884       -25.95068        14.14627
   H       -0.22018       -24.38279        14.29322
*
