# ORCA input file
# SCF done       -176.857041613776          0.000800740714
! CAM-B3LYP def2-SVP def2/J RIJCOSX Grid4 TightSCF
%maxcore 5000
%tddft
    Mode sTDDFT
    Ethresh 5.0
    maxcore 5000
end

%pal
  nprocs 6
  end
* xyz 0 1
   C       -5.15271        -0.82988        -3.22197
   C       -3.89773        -1.38214        -3.16194
   C       -3.38498        -2.28545        -4.11608
   N       -2.91076        -3.02431        -4.85570
   C       -2.93622        -1.10433        -2.16939
   N       -2.10684        -0.90852        -1.39791
   C       -6.12603        -1.04933        -4.28518
   C       -7.24408        -0.20561        -4.05955
   C       -8.33349        -0.17609        -4.89595
   C       -8.32325        -1.02387        -6.00779
   C       -7.20564        -1.86581        -6.22432
   C       -6.10161        -1.89239        -5.37954
   S       -7.41255        -2.82893        -7.65244
   C       -8.95932        -2.11148        -7.94211
   C       -9.31235        -1.19238        -7.01694
   C       -7.02144         0.57092        -2.83202
   O       -7.76893         1.40700        -2.35526
   C       -5.73190         0.12164        -2.29176
   C       -5.20168         0.47590        -1.07919
   C       -5.65446         1.40044        -0.12559
   S       -7.04252         2.44228        -0.29053
   C       -6.73575         3.15677         1.26304
   C       -5.62859         2.58443         1.89208
   C       -5.00934         1.61946         1.10204
   C       -3.77683         0.88607         1.53580
   C       -3.10001         1.59602         2.71655
   C       -2.06407         0.74743         3.26435
   N       -1.27272         0.05599         3.71067
   C       -4.15183         1.91403         3.79819
   C       -3.51987         2.43500         4.98999
   N       -3.02696         2.88120         5.91854
   C       -5.15015         2.94927         3.26206
   C       -7.59377         4.19280         1.70804
   C       -8.69825         4.67129         1.01764
   C       -9.33753         5.70800         1.69010
   C       -8.71684         6.03289         2.91063
   S       -7.34964         5.06357         3.22160
   C       -9.43858         7.08333         3.52357
   C      -10.51727         7.43361         2.68880
   C      -10.48732         6.58172         1.50891
   C      -11.35285         6.59849         0.45610
   C      -11.22850         5.71976        -0.64167
   N      -11.14230         5.01279        -1.53998
   C      -12.43900         7.49720         0.38389
   N      -13.32655         8.21876         0.31028
   C      -11.29520         8.46244         3.21371
   C      -10.81575         8.88984         4.44161
   S       -9.38548         8.01784         4.95214
   C      -11.37582         9.90354         5.25278
   N      -12.42343        10.60038         4.91892
   C      -12.73629        11.47156         5.87395
   C      -11.91635        11.47761         7.01750
   S      -10.67632        10.30263         6.84798
   N      -12.22963        12.34355         7.97645
   C      -13.28151        13.04143         7.64404
   S      -13.97534        12.65037         6.04857
   C      -13.84913        14.04162         8.47872
   C      -13.33645        14.28471         9.73100
   C      -13.83380        15.23835        10.61670
   C      -15.04105        16.01668        10.27611
   C      -15.68774        15.94084         9.09301
   S      -15.21421        14.91512         7.80244
   C      -15.32039        16.79737        11.42764
   C      -14.36292        16.53386        12.41298
   C      -14.58721        17.28946        13.58708
   C      -15.68165        18.08322        13.46758
   S      -16.48358        17.95515        11.93501
   C      -13.41982        15.57900        11.91152
   C      -12.28767        15.12050        12.67132
   C      -11.14279        14.64082        12.18708
   H       -9.16659         0.47989        -4.69662
   H       -5.27696        -2.55379        -5.58657
   H       -9.51766        -2.42815        -8.80154
   H      -10.23710        -0.64464        -7.03371
   H       -4.29629        -0.03874        -0.78866
   H       -3.06154         0.80625         0.71359
   H       -4.04359        -0.13500         1.83247
   H       -2.63838         2.53161         2.37777
   H       -4.67786         0.98868         4.06437
   H       -4.67731         3.93792         3.23828
   H       -5.99735         3.01447         3.95023
   H       -9.00312         4.26385         0.07035
   H      -12.16678         8.89719         2.76093
   H      -12.50990        13.65699        10.02806
   H      -16.55932        16.53671         8.87116
   H      -13.97624        17.25072        14.47061
   H      -16.08686        18.75826        14.19594
   H      -12.39787        15.23009        13.74391
   H      -10.94230        14.57126        11.13265
   H      -10.34985        14.32886        12.84486
*
