# ORCA input file
# SCF done       -210.832491828065          0.000939046947
! CAM-B3LYP def2-SVP def2/J RIJCOSX Grid4 TightSCF
%maxcore 5000
%tddft
    Mode sTDDFT
    Ethresh 5.0
    maxcore 5000
end

%pal
  nprocs 6
  end
* xyz 0 1
   C        0.49150        -1.31643         4.41857
   C       -0.63842        -2.01511         4.74037
   F       -1.83696        -1.40421         4.67309
   C       -0.60356        -3.35685         5.14204
   C        0.60423        -3.99370         5.21483
   C        1.80094        -3.32160         4.89360
   C        1.74416        -1.95615         4.49055
   C        2.93263        -1.25626         4.17514
   C        4.13480        -1.90412         4.25739
   C        4.18290        -3.27447         4.64076
   C        3.05438        -3.97172         4.95864
   C        5.58549        -3.73762         4.60611
   O        6.01302        -4.82498         4.92065
   C        6.36308        -2.59597         4.05813
   C        5.50378        -1.43848         4.03548
   C        5.88652        -0.11877         4.06408
   C        7.22092         0.32400         4.13209
   N        8.28265         0.75158         4.22915
   C        4.98428         0.96130         4.10930
   N        4.30125         1.88519         4.11203
   C        7.64649        -2.81287         3.63367
   C        8.43318        -2.03230         2.76940
   C        8.05158        -1.05589         1.85234
   C        9.10694        -0.47928         1.16653
   C       10.33732        -1.02564         1.57728
   S       10.16902        -2.27126         2.73792
   C       11.48223        -0.42540         1.00852
   C       11.24721         0.63873         0.12820
  Si        9.40036         0.93008        -0.03225
   C        8.76338         0.59337        -1.76096
   C        8.84545         2.57279         0.66851
   C       12.44289         1.18272        -0.33706
   C       13.57549         0.56655         0.16626
   S       13.15427        -0.74606         1.24612
   C       14.94097         0.88670        -0.08342
   C       15.97633         0.21253         0.51492
   C       17.33091         0.48923         0.33456
   C       17.75680         1.66114        -0.44471
   C       16.91292         2.44883        -1.14443
   S       15.21278         2.21369        -1.21003
   C       19.16627         1.73628        -0.27059
   C       19.59427         0.69028         0.54742
   C       20.99149         0.71124         0.75091
   C       21.57485         1.75163         0.10022
   S       20.46300         2.74037        -0.78616
   C       18.46103        -0.12117         0.90738
   C       18.53291        -1.30600         1.68352
   C       17.61727        -2.30899         1.64224
   C       17.60365        -3.46398         2.46008
   C       18.39661        -3.82159         3.54251
   C       18.03258        -5.02593         4.13718
   C       16.93180        -5.60286         3.48261
   S       16.36683        -4.66358         2.16041
   C       16.45566        -6.81191         4.02189
   C       17.14070        -7.29578         5.15210
  Si       18.52092        -6.10637         5.59249
   C       20.22721        -6.85747         5.40939
   C       18.26262        -5.26743         7.24510
   C       16.57884        -8.48013         5.60130
   C       15.46632        -8.90116         4.87540
   S       15.14586        -7.80413         3.54319
   C       14.74176       -10.08610         5.08339
   C       13.55021       -10.48086         4.53644
   C       13.23587       -11.92528         4.43407
   O       13.79500       -12.83860         5.00182
   C       12.14596       -12.01157         3.43848
   C       11.57473       -13.11841         2.88238
   C       10.56263       -12.95653         1.90863
   C       10.15988       -11.64267         1.53145
   C        9.15698       -11.49039         0.55447
   C        8.59275       -12.60130        -0.00759
   C        8.97358       -13.90101         0.35040
   C        9.94578       -14.06687         1.29752
   F        7.63389       -12.45670        -0.94341
   C       10.76127       -10.51251         2.13431
   C       11.73828       -10.69611         3.07330
   C       12.50562        -9.74245         3.87038
   C       12.12522        -8.45171         4.14608
   C       12.70772        -7.69313         5.18119
   N       13.12830        -7.07197         6.05097
   C       11.07612        -7.77892         3.49339
   N       10.25930        -7.17237         2.95991
   H        0.42733        -0.28243         4.11751
   H       -1.52785        -3.85687         5.38442
   H        0.65692        -5.02760         5.52128
   H        2.85840        -0.22512         3.86793
   H        3.11572        -5.00753         5.25684
   H        8.08353        -3.74837         3.97024
   H        7.02043        -0.80702         1.67227
   H        9.09116        -0.37166        -2.14311
   H        9.10308         1.34852        -2.46675
   H        7.67581         0.59764        -1.79413
   H        9.12436         2.67918         1.71552
   H        7.76396         2.68368         0.61779
   H        9.27613         3.41539         0.13112
   H       12.49686         2.01272        -1.01943
   H       15.69809        -0.56551         1.21197
   H       17.25155         3.29069        -1.72739
   H       21.53888         0.00122         1.34401
   H       22.61471         2.01337         0.07834
   H       19.40657        -1.41192         2.31300
   H       16.82495        -2.26283         0.90898
   H       19.20777        -3.20781         3.89071
   H       20.36562        -7.34208         4.44468
   H       20.41685        -7.60822         6.17375
   H       21.00868        -6.10642         5.50476
   H       17.25635        -4.86504         7.34575
   H       18.95531        -4.44118         7.39284
   H       18.41319        -5.95846         8.07208
   H       16.93349        -9.03053         6.45495
   H       15.24220       -10.83895         5.68529
   H       11.89094       -14.10744         3.17857
   H        8.83595       -10.50427         0.25723
   H        8.49322       -14.74020        -0.12732
   H       10.25674       -15.05861         1.59014
   H       10.44320        -9.52784         1.82930
*
