# ORCA input file
# SCF done       -208.719111147532          0.000432162741
! CAM-B3LYP def2-SVP def2/J RIJCOSX Grid4 TightSCF
%maxcore 5000
%tddft
    Mode sTDDFT
    Ethresh 5.0
    maxcore 5000
end

%pal
  nprocs 6
  end
* xyz 0 1
   C        9.94677        -4.27220        -9.55870
   C        9.59701        -5.25873       -10.43849
   F       10.49555        -5.68988       -11.34013
   C        8.32517        -5.84872       -10.43982
   C        7.39839        -5.42524        -9.52863
   C        7.70608        -4.41276        -8.59626
   C        9.00441        -3.82263        -8.61349
   C        9.33361        -2.79942        -7.69434
   C        8.39582        -2.38830        -6.78645
   C        7.10562        -2.99447        -6.76064
   C        6.75877        -3.97688        -7.64350
   C        6.30676        -2.40838        -5.66776
   O        5.15687        -2.62980        -5.37926
   C        7.26291        -1.52540        -4.92836
   C        8.43713        -1.35174        -5.76079
   C        9.26444        -0.26159        -5.76100
   C        9.06888         0.85316        -4.91797
   N        8.91113         1.79046        -4.27504
   C       10.33548        -0.09484        -6.66307
   N       11.22740         0.07066        -7.36545
   C        6.99021        -1.16726        -3.64923
   C        7.87315        -0.73077        -2.63024
   C        7.51647        -0.17152        -1.42476
   C        6.26363         0.27771        -0.78616
   O        5.12687         0.21014        -1.17409
   N        6.66735         0.80463         0.43442
   C        5.74781         1.37240         1.38972
   C        8.03571         0.72722         0.66359
   O        8.58556         1.10319         1.66811
   C        8.58652         0.09448        -0.54805
   C        9.81861        -0.27724        -1.04690
   S        9.61594        -0.96773        -2.64199
   C       11.10103        -0.17685        -0.45518
   C       11.39465         0.13694         0.86249
   C       12.76712         0.12822         1.09581
   C       13.52081        -0.16997        -0.05723
   S       12.54251        -0.46916        -1.41825
   C       14.89935        -0.13847         0.27349
   C       15.01403         0.16279         1.64563
   C       13.68230         0.32974         2.20853
   C       13.37303         0.58117         3.51151
   C       12.04815         0.67719         3.99240
   N       10.98745         0.73486         4.42168
   C       14.37708         0.72739         4.49390
   N       15.19239         0.83797         5.29222
   C       16.33611         0.20635         2.07128
   C       17.21853        -0.04632         1.03144
   S       16.40646        -0.34211        -0.49793
   C       18.62931        -0.07899         1.11439
   C       19.55561        -0.23231         0.10713
   C       19.54069        -0.39710        -1.34944
   O       18.60199        -0.48227        -2.10635
   N       20.87714        -0.46403        -1.71418
   C       21.31400        -0.61177        -3.08069
   C       21.76230        -0.38597        -0.64011
   O       22.95941        -0.46075        -0.72440
   C       20.89459        -0.22794         0.54333
   C       21.05520        -0.04583         1.89637
   S       19.46480         0.07935         2.64535
   C       22.27516        -0.06788         2.62107
   C       22.53633         0.40287         3.86426
   C       23.71144        -0.12592         4.62730
   O       24.64290        -0.74601         4.17707
   C       23.42894         0.21205         6.03418
   C       24.10783        -0.16309         7.15839
   C       23.63459         0.25674         8.42110
   C       22.45579         1.05636         8.49706
   C       21.98485         1.46117         9.76114
   C       22.66758         1.08363        10.88413
   C       23.82941         0.30050        10.83012
   C       24.29978        -0.10271         9.61171
   F       22.22070         1.46901        12.09124
   C       21.77671         1.43743         7.31650
   C       22.26114         1.02726         6.10402
   C       21.80046         1.28971         4.74534
   C       21.04154         2.35837         4.35292
   C       20.85064         2.71590         3.00138
   N       20.70509         3.05283         1.91406
   C       20.45632         3.27264         5.25428
   N       19.96071         4.03719         5.95098
   H       10.93378        -3.83792        -9.58956
   H        8.10655        -6.62270       -11.15826
   H        6.41248        -5.86455        -9.51003
   H       10.32441        -2.37369        -7.72133
   H        5.77355        -4.41744        -7.61427
   H        5.96229        -1.30327        -3.32335
   H        4.77541         0.90152         1.25574
   H        5.65122         2.44860         1.23389
   H        6.12959         1.18994         2.39311
   H       10.63413         0.36528         1.58897
   H       16.66621         0.41467         3.07338
   H       20.60981        -1.25169        -3.61053
   H       22.30803        -1.05565        -3.07632
   H       21.35503         0.36049        -3.57555
   H       23.08671        -0.59567         2.12734
   H       24.99516        -0.77376         7.08500
   H       21.09592         2.06717         9.84022
   H       24.32532         0.03355        11.74982
   H       25.19220        -0.70646         9.54484
   H       20.88162         2.03369         7.39943
*
