# ORCA input file
# SCF done       -207.330041052393          0.000470539259
! CAM-B3LYP def2-SVP def2/J RIJCOSX Grid4 TightSCF
%maxcore 5000
%tddft
    Mode sTDDFT
    Ethresh 5.0
    maxcore 5000
end

%pal
  nprocs 6
  end
* xyz 0 1
   C        6.75514         0.32067         5.80988
   C        6.01468         1.10591         6.64203
   C        4.97017         1.75038         5.95304
   C        4.96096         1.43277         4.58896
   S        6.20251         0.34361         4.17309
   C        3.88007         2.12870         3.97371
   C        3.19669         2.85555         4.95821
   C        3.85704         2.62933         6.23819
   C        3.47691         3.10813         7.46240
   C        2.30088         3.85786         7.64473
   N        1.31632         4.42761         7.80218
   C        4.20816         2.80853         8.62684
   N        4.80399         2.54700         9.57303
   C        2.11889         3.58298         4.44997
   C        1.99179         3.43285         3.08073
   S        3.21487         2.35402         2.42402
   C        1.05282         4.06662         2.20852
   C       -0.13429         4.59816         2.64929
   C       -1.05063         5.26698         1.83848
   C       -0.78407         5.49726         0.41738
   C        0.30319         5.02940        -0.23484
   S        1.54990         4.13269         0.52528
   C       -1.89789         6.24268        -0.05721
   C       -2.81412         6.44950         0.97729
   C       -3.93609         7.18626         0.53431
   C       -3.84177         7.50693        -0.78293
   S       -2.40035         6.93357        -1.54625
   C       -2.30425         5.82302         2.17321
   C       -2.91914         5.67085         3.43334
   C       -4.14598         6.12641         3.80419
   C       -4.75144         5.80973         5.04721
   C       -4.22971         5.10066         6.10236
   C       -5.15743         4.83420         7.12732
   C       -5.01579         4.08885         8.31981
   C       -6.15350         4.01412         9.14772
   C       -7.32261         4.71451         8.75499
   N       -7.46440         5.40966         7.64690
   C       -6.41743         5.44401         6.85569
   S       -6.42921         6.26027         5.33073
   S       -8.64248         4.53781         9.87961
   C       -7.65785         3.47578        10.83928
   C       -6.40676         3.28662        10.34985
   F       -5.53286         2.44855        10.92956
   F       -8.15764         2.92279        11.93809
   C       -3.74937         3.46495         8.62398
   C       -2.89377         2.87675         7.71088
   C       -1.70014         2.46170         8.29841
   C       -1.66067         2.71121         9.68339
   S       -3.06803         3.49411        10.23836
   C       -0.44092         2.21027        10.19534
   C        0.30159         1.66505         9.12160
   C       -0.46187         1.82322         7.89876
   C       -0.06415         1.49599         6.63160
   C        1.14582         0.82145         6.38585
   N        2.13750         0.27888         6.18661
   C       -0.79785         1.89064         5.49752
   N       -1.35921         2.27965         4.57486
   C        1.54017         1.18111         9.50791
   C        1.75744         1.30632        10.87722
   S        0.38409         2.08858        11.67273
   C        2.87275         1.00881        11.67326
   C        4.06836         0.40777        11.38199
   C        5.19825         0.68272        12.30458
   O        5.14225         1.14490        13.41884
   C        6.41374         0.29883        11.54727
   C        6.03757        -0.28130        10.32260
   C        7.01375        -0.70576         9.43841
   C        8.36119        -0.55274         9.77010
   C        8.72034         0.02789        10.99957
   C        7.73435         0.45925        11.89642
   C       10.06518         0.21939        11.39318
   N       11.14196         0.37618        11.75896
   C        9.34363        -0.99933         8.72387
   O        9.01600        -1.07354         7.56941
   O       10.57735        -1.33018         9.09784
   C        4.57458        -0.34185        10.25936
   C        3.86312        -1.15460         9.41235
   C        2.50079        -1.45211         9.61430
   N        1.40191        -1.73485         9.78836
   C        4.42024        -1.82238         8.30292
   N        4.82510        -2.34889         7.36724
   H        7.60627        -0.28077         6.06340
   H        6.22209         1.22327         7.68990
   H        1.48198         4.22097         5.03534
   H       -0.37043         4.46174         3.69379
   H        0.46299         5.18591        -1.28983
   H       -4.77523         7.47791         1.13789
   H       -4.54628         8.05895        -1.37377
   H       -2.36110         5.08111         4.14644
   H       -4.74026         6.71234         3.12210
   H       -3.20078         4.79932         6.13774
   H       -3.15967         2.70522         6.68393
   H        2.27434         0.79663         8.82555
   H        2.83261         1.41295        12.68169
   H        6.77557        -1.15081         8.48515
   H        8.00660         0.90988        12.83881
   H       10.78130        -1.19416        10.03552
*
