# ORCA input file
# SCF done       -162.776904736570          0.000484299003
! CAM-B3LYP def2-SVP def2/J RIJCOSX Grid4 TightSCF
%maxcore 5000
%tddft
    Mode sTDDFT
    Ethresh 5.0
    maxcore 5000
end

%pal
  nprocs 6
  end
* xyz 0 1
   C       -3.50203         0.92869         0.26732
   C       -3.72008         1.28588        -1.04239
   N       -4.15991         2.60297        -1.35401
   O       -4.49589         3.30507        -0.41928
   O       -4.17188         2.95893        -2.51449
   C       -3.47357         0.23607        -1.97536
   C       -3.70594         0.32467        -3.44257
   C       -3.05021        -0.90083        -1.32067
   S       -2.97674        -0.67211         0.41250
   C       -2.69584        -2.18023        -1.85394
   C       -2.22527        -2.51014        -3.10633
   C       -1.98388        -3.88438        -3.23160
   C       -2.27171        -4.59525        -2.05128
   S       -2.83877        -3.58667        -0.79877
   C       -1.99305        -5.96047        -2.26182
   C       -1.52402        -6.12847        -3.58362
   C       -1.51045        -4.81901        -4.23201
   C       -1.14051        -4.54218        -5.51754
   C       -1.18029        -3.23276        -6.03839
   N       -1.21703        -2.16639        -6.45929
   C       -0.70241        -5.54607        -6.40434
   N       -0.34590        -6.36140        -7.12828
   C       -1.21922        -7.44577        -3.87993
   C       -1.45049        -8.30277        -2.79499
   S       -2.05932        -7.42128        -1.39320
   C       -1.24249        -9.68763        -2.77232
   C       -1.48115       -10.52051        -1.70034
   C       -1.29374       -11.92150        -1.61603
   C       -1.62903       -12.46764        -0.40733
   C       -2.09969       -11.52332         0.52406
   S       -2.09947        -9.92489        -0.17940
   C       -2.54728       -11.62523         1.83379
   C       -2.69413       -12.70822         2.71801
   C       -3.19196       -12.35258         3.94247
   C       -3.46651       -10.97151         4.09040
   S       -3.05760       -10.14402         2.60730
   C       -3.98363       -10.34079         5.20311
   C       -4.26799        -8.97545         5.33771
   C       -4.09624        -7.92563         4.42974
   C       -4.51788        -6.71155         4.93818
   C       -5.02332        -6.79256         6.25448
   S       -4.96746        -8.39464         6.85515
   C       -5.42454        -5.50535         6.66620
   C       -5.17183        -4.60446         5.60190
   C       -4.59528        -5.32764         4.48912
   C       -4.21067        -4.82899         3.27609
   C       -4.33122        -3.46301         2.94935
   N       -4.41907        -2.35561         2.66203
   C       -3.66466        -5.62520         2.24888
   N       -3.21916        -6.24043         1.38857
   C       -5.54655        -3.30709         5.91047
   C       -6.08495        -3.19174         7.18999
   S       -6.11080        -4.74304         8.03002
   C       -6.55916        -1.96371         7.71657
   C       -7.24465        -1.60783         8.88715
   N       -7.57287        -2.50212         9.90814
   O       -7.05955        -3.62144         9.88938
   O       -8.34206        -2.15364        10.78429
   C       -7.58273        -0.21463         8.95742
   C       -8.30134         0.44934        10.07869
   C       -7.14473         0.45536         7.86473
   S       -6.34095        -0.55004         6.72381
   H       -3.62699         1.55867         1.12588
   H       -4.47187         1.06308        -3.66266
   H       -4.00754        -0.64257        -3.83758
   H       -2.79698         0.64180        -3.95364
   H       -2.02812        -1.78902        -3.87640
   H       -0.84619        -7.80013        -4.82404
   H       -0.86255       -10.13550        -3.68095
   H       -0.91738       -12.48682        -2.45053
   H       -1.54999       -13.51411        -0.17185
   H       -2.43497       -13.71384         2.43817
   H       -3.37253       -13.04657         4.74454
   H       -4.20057       -10.96660         6.05873
   H       -3.68286        -8.04313         3.44750
   H       -5.44796        -2.46825         5.24431
   H       -7.80778         0.24600        11.02686
   H       -9.31681         0.06607        10.15891
   H       -8.33426         1.52278         9.91146
   H       -7.24820         1.50093         7.65482
*
