# ORCA input file
# SCF done       -213.936437884280          0.000722257299
! CAM-B3LYP def2-SVP def2/J RIJCOSX Grid4 TightSCF
%maxcore 5000
%tddft
    Mode sTDDFT
    Ethresh 5.0
    maxcore 5000
end

%pal
  nprocs 6
  end
* xyz 0 1
   C       -1.31320        -9.89096        10.45398
   C       -1.60259        -9.80257        11.81404
   C       -2.14560       -10.98081        12.57039
   O       -1.88966       -11.17052        13.72473
   O       -2.92945       -11.81942        11.88194
   C       -1.33203        -8.62101        12.52409
   C       -1.64757        -8.49400        13.90097
   N       -1.90142        -8.27986        14.99680
   C       -0.75983        -7.51902        11.87898
   C       -0.47519        -7.62470        10.53548
   C       -0.76096        -8.79595         9.81084
   C       -0.38529        -8.59118         8.41259
   C       -0.88562        -9.31102         7.35689
   C       -1.71570       -10.43626         7.52129
   N       -2.39016       -11.35877         7.63596
   C       -0.69738        -8.96128         6.00617
   N       -0.57849        -8.71038         4.89207
   C        0.36628        -7.36451         8.34671
   C        0.17502        -6.64012         9.63285
   O        0.51409        -5.51268         9.89588
   C        1.19603        -6.83883         7.39947
   C        1.82997        -7.47100         6.30159
   C        2.32050        -6.67813         5.23405
   C        2.94047        -7.26037         4.07937
   N        3.32581        -6.48881         3.06197
   C        3.14143        -5.18863         3.12300
   C        2.55487        -4.60543         4.28985
   N        2.16152        -5.34639         5.29620
   C        2.39843        -3.19635         4.36729
   N        2.28764        -2.05737         4.39370
   C        3.53572        -4.37942         2.02999
   N        3.84382        -3.69943         1.16140
   C        3.15662        -8.66077         3.95126
   C        2.74389        -9.44357         5.05640
   C        2.08766        -8.85886         6.20239
   N        1.81145        -9.77858         7.12752
   S        2.30670       -11.22039         6.61078
   N        2.90079       -10.75812         5.19773
   C        3.73746        -9.19687         2.78837
   C        3.94591       -10.55128         2.50842
   C        4.54398       -10.73850         1.28102
   C        4.81264        -9.51541         0.60253
   S        4.29389        -8.14687         1.48877
   C        5.42715        -9.81394        -0.62371
   C        5.54309       -11.22379        -0.73973
   C        4.99411       -11.84358         0.45431
   C        4.92492       -13.17627         0.73769
   C        5.40039       -14.15878        -0.15654
   N        5.78575       -14.96250        -0.87795
   C        4.37904       -13.66145         1.94536
   N        3.94167       -14.06515         2.92519
   C        6.13885       -11.62099        -1.92071
   C        6.49861       -10.53123        -2.71513
   S        6.08589        -8.99259        -1.97846
   C        7.13142       -10.58275        -3.97865
   C        7.50794        -9.40091        -4.65266
   C        8.15416        -9.42063        -5.93715
   N        8.50178        -8.26643        -6.50523
   C        8.25106        -7.12291        -5.90245
   C        7.60420        -7.10712        -4.63156
   N        7.25634        -8.23286        -4.05097
   C        7.34342        -5.87723        -3.97637
   N        7.15246        -4.86645        -3.47408
   C        8.64107        -5.91799        -6.53532
   N        8.95062        -4.93309        -7.03130
   C        8.43784       -10.61939        -6.64356
   C        8.07978       -11.81208        -5.95311
   C        7.44577       -11.78893        -4.65218
   N        7.20902       -13.01557        -4.19574
   S        7.72514       -14.09805        -5.25792
   N        8.27567       -13.06580        -6.36349
   C        9.04010       -10.58881        -7.93527
   C        9.21068       -11.75242        -8.67443
   C        9.81647       -11.84522        -9.91296
   C       10.28324       -10.65483       -10.62379
   C       10.20826        -9.41176       -10.09890
   S        9.55126        -9.02453        -8.56012
   C       10.75721       -11.12045       -11.88103
   C       10.59578       -12.51406       -11.95105
   C       11.05375       -13.03847       -13.18560
   C       11.53032       -12.06147       -13.99425
   S       11.45158       -10.46791       -13.30142
   C       10.03418       -12.98703       -10.73192
   C        9.78226       -14.37358       -10.47008
   C        9.66685       -14.96596        -9.27830
   H       -1.46991       -10.81680         9.92070
   H       -3.08886       -11.55494        10.96502
   H       -0.54373        -6.61147        12.42194
   H        1.44924        -5.79155         7.53324
   H        3.65690       -11.32156         3.20007
   H        6.32483       -12.63349        -2.22799
   H        8.81428       -12.65090        -8.22875
   H       10.55825        -8.54220       -10.63417
   H       11.03096       -14.07765       -13.45857
   H       11.93764       -12.16425       -14.98094
   H        9.72841       -14.98744       -11.36168
   H        9.78237       -14.44064        -8.34750
   H        9.48409       -16.02454        -9.20829
*
