# ORCA input file
# SCF done       -149.236313669637          0.000518129493
! CAM-B3LYP def2-SVP def2/J RIJCOSX Grid4 TightSCF
%maxcore 5000
%tddft
    Mode sTDDFT
    Ethresh 5.0
    maxcore 5000
end

%pal
  nprocs 6
  end
* xyz 0 1
   C      -10.33829         8.17756        10.73853
   C      -10.50793         9.24099        11.73651
   N       -9.41983         9.89387        12.00012
   C       -8.45135         9.32150        11.21170
   C       -9.02581         8.22794        10.41928
   C       -7.97227         7.64799         9.58654
   S       -8.31697         6.38720         8.45583
   C       -6.83157         8.36410         9.84431
   C       -7.13576         9.42678        10.86610
   N       -6.04781        10.19410        11.08878
   C       -5.11095         9.74155        10.29517
   C       -5.47655         8.59641         9.48571
   C       -4.63251         7.97121         8.57658
   C       -3.37342         8.53725         8.08224
   N       -2.76072         7.81471         7.19111
   C       -3.51293         6.69408         7.02731
   C       -4.71925         6.74359         7.89240
   C       -5.43047         5.55529         7.74139
   S       -6.80646         4.97116         8.62670
   C       -4.71039         4.76720         6.79724
   C       -3.52875         5.49666         6.36043
   N       -2.81449         4.75237         5.45029
   C       -3.46779         3.64841         5.29383
   C       -4.69412         3.54530         6.11733
   C       -5.60783         2.50658         6.24015
   C       -5.62628         1.28589         5.58368
   C       -6.56785         0.26183         5.80908
   C       -6.35653        -0.86983         5.06638
   C       -5.24170        -0.78050         4.21816
   S       -4.47589         0.77497         4.37289
   C       -4.71822        -1.75385         3.36631
   C       -5.14582        -3.08112         3.19157
   C       -4.36696        -3.79132         2.31950
   C       -3.28493        -3.05879         1.78550
   S       -3.31884        -1.42579         2.38812
   C       -2.38996        -3.52569         0.83755
   C       -1.27106        -2.90370         0.29117
   C       -0.77522        -3.31576        -1.04525
   N        0.19075        -2.59813        -1.50313
   C        0.48045        -1.68990        -0.51683
   C       -0.40956        -1.85834         0.64104
   C        0.03270        -0.97186         1.67304
   S       -0.41783        -1.05046         3.34824
   C        1.10169        -0.23834         1.15161
   C        1.37620        -0.70101        -0.22695
   N        2.46218        -0.06189        -0.74437
   C        2.89257         0.72919         0.19012
   C        2.10014         0.71376         1.42718
   C        2.36195         1.52222         2.52805
   C        3.58478         2.28358         2.70719
   N        3.63645         3.02149         3.78510
   C        2.45537         2.85225         4.41667
   C        1.59176         1.87641         3.66560
   C        0.38581         1.75409         4.31161
   S       -1.03442         0.85704         3.92570
   C        0.43493         2.64836         5.46483
   C        1.74994         3.30556         5.49266
   N        1.82587         4.16666         6.55828
   C        0.67704         4.08108         7.15276
   C       -0.25323         3.13840         6.51976
   H      -11.11573         7.53415        10.37498
   H      -11.43344         9.48657        12.22583
   H       -4.14113        10.20874        10.29870
   H       -2.96527         9.48700         8.37965
   H       -3.09795         2.89335         4.62293
   H       -6.40867         2.66401         6.95388
   H       -7.36757         0.38026         6.51860
   H       -6.97227        -1.74934         5.11707
   H       -5.99831        -3.48348         3.70787
   H       -4.52932        -4.82299         2.06254
   H       -2.64194        -4.48858         0.40607
   H       -1.19887        -4.11877        -1.62284
   H        3.75372         1.34972         0.01697
   H        4.42907         2.26003         2.04020
   H        0.46034         4.66747         8.02747
   H       -1.24707         2.92581         6.85975
*
