# ORCA input file
# SCF done       -219.025847260684          0.000771543080
! CAM-B3LYP def2-SVP def2/J RIJCOSX Grid4 TightSCF
%maxcore 5000
%tddft
    Mode sTDDFT
    Ethresh 5.0
    maxcore 5000
end

%pal
  nprocs 6
  end
* xyz 0 1
   C      -10.15710       -21.70583        -3.20570
   F      -11.41802       -22.05238        -2.88632
   C       -9.61072       -22.12152        -4.42007
   C      -10.36324       -22.88962        -5.48335
   O      -10.07757       -22.80071        -6.63963
   O      -11.35583       -23.67598        -5.06893
   C       -8.29046       -21.72807        -4.65894
   F       -7.66568       -22.09927        -5.76930
   C       -7.57954       -20.97333        -3.73796
   F       -6.31412       -20.65399        -4.04740
   C       -8.12699       -20.53196        -2.52089
   C       -9.45357       -20.94011        -2.29175
   F      -10.08129       -20.61812        -1.15487
   C       -7.38217       -19.73569        -1.58118
   C       -7.85731       -19.07115        -0.46179
   C       -6.84499       -18.40594         0.22487
   C       -5.58149       -18.57119        -0.37402
   S       -5.64430       -19.52219        -1.77980
   C       -4.62277       -17.86656         0.39482
   C       -5.27931       -17.25384         1.47975
   C       -6.69467       -17.59028         1.42014
   C       -7.66124       -17.24802         2.31750
   C       -7.38350       -16.53451         3.50537
   N       -7.17659       -15.99411         4.49430
   C       -9.01230       -17.62086         2.14496
   N      -10.11226       -17.91350         2.00940
   C       -4.42321       -16.50108         2.27655
   C       -3.11561       -16.54686         1.81924
   S       -2.94955       -17.54318         0.37679
   C       -1.97551       -15.91063         2.36434
   C       -0.59158       -16.20468         1.96392
   N        0.30724       -15.52073         2.60114
   C       -0.38811       -14.71229         3.45498
   C       -1.83518       -14.93955         3.33483
   C       -2.54275       -14.04219         4.21799
   S       -4.17426       -13.90435         4.40964
   C       -1.50586       -13.28619         4.87213
   C       -0.19133       -13.72830         4.38678
   N        0.81645       -13.03432         4.99729
   C        0.22729       -12.21477         5.80963
   C       -1.24234       -12.29256         5.79617
   C       -2.08324       -11.48030         6.58558
   C       -3.46851       -11.40029         6.57024
   C       -3.94868       -10.48227         7.49521
   C       -2.92266        -9.85907         8.23710
   S       -1.37181       -10.38840         7.77699
   C       -3.51470        -8.97574         9.17074
   C       -4.91040        -9.03695         9.02533
   C       -5.23039        -9.96933         7.95523
   C       -6.46913       -10.26717         7.47077
   C       -7.63470        -9.69696         8.02619
   N       -8.57741        -9.23248         8.48471
   C       -6.68340       -11.12807         6.37137
   N       -6.88449       -11.79758         5.46353
   C       -5.58410        -8.19817         9.91516
   C       -4.72022        -7.49865        10.73329
   S       -3.04045        -7.88258        10.39310
   C       -5.04685        -6.55166        11.76892
   C       -6.36734        -6.41035        12.22714
   C       -6.70362        -5.51187        13.21439
   C       -5.71224        -4.71047        13.77727
   C       -4.39121        -4.86292        13.32884
   C       -4.04840        -5.75943        12.34376
   S       -3.32548        -3.76308        14.17024
   C       -4.66850        -3.15109        15.11062
   C       -4.54896        -2.27396        16.16476
   C       -3.43427        -1.52122        16.54206
   C       -2.30248        -1.11924        15.86578
   C       -1.94274        -1.01388        14.48500
   C       -2.79608        -0.95746        13.40194
   C       -4.19207        -0.89018        13.52374
   N       -5.33828        -0.83599        13.60224
   C       -2.38212        -0.88682        12.05896
   N       -2.12189        -0.87416        10.93989
   C       -0.49869        -0.77246        14.41708
   C       -0.01680        -0.54977        15.71864
   C       -1.13271        -0.69169        16.67739
   O       -1.10527        -0.52587        17.87749
   C        1.30981        -0.25602        15.95866
   C        2.17460        -0.19312        14.87329
   C        1.70820        -0.42288        13.58814
   C        0.37070        -0.71084        13.34197
   N       -5.83847        -3.75841        14.75293
   C       -7.10157        -3.25747        15.23318
   H      -11.56644       -23.61858        -4.12705
   H       -8.88823       -19.05534        -0.16316
   H       -4.71246       -15.93806         3.14629
   H       -0.31128       -16.92876         1.21810
   H        0.79790       -11.54152         6.42657
   H       -4.07315       -11.99540         5.90820
   H       -6.65237        -8.09481         9.95156
   H       -7.14278        -7.02908        11.80654
   H       -7.72717        -5.44553        13.54597
   H       -3.02325        -5.83809        12.01735
   H       -5.39861        -2.21131        16.82970
   H       -3.42663        -1.21443        17.58492
   H        1.65272        -0.08005        16.96675
   H        3.21798         0.03565        15.03062
   H        2.39534        -0.37561        12.75639
   H        0.03470        -0.88712        12.33284
   H       -7.09802        -2.16787        15.17312
   H       -7.27786        -3.56803        16.26552
   H       -7.90279        -3.63740        14.60608
*
