# ORCA input file
# SCF done       -184.517581957501          0.000365198632
! CAM-B3LYP def2-SVP def2/J RIJCOSX Grid4 TightSCF
%maxcore 5000
%tddft
    Mode sTDDFT
    Ethresh 5.0
    maxcore 5000
end

%pal
  nprocs 6
  end
* xyz 0 1
   C        4.55433        -1.24126         0.09917
   S        5.28823         0.23470        -0.35017
   C        4.07075         1.15796         0.47659
   C        3.14045         0.32608         1.05229
   C        3.42774        -1.04870         0.84021
   C        2.50426        -2.14450         1.27616
   F        1.76330        -2.54293         0.17294
   C        1.53093        -1.65357         2.35393
   F        0.58395        -2.61688         2.57208
   C        0.88478        -0.35124         1.87351
   F       -0.13090         0.02705         2.70857
   C        1.95138         0.75057         1.85628
   F        2.35452         0.97404         3.16511
   C        4.14420         2.60823         0.45915
   C        3.76759         3.37914         1.55288
   C        3.84170         4.76448         1.49801
   N        3.38432         5.47308         2.66675
   O        3.43631         4.88991         3.72678
   O        2.96671         6.60624         2.52682
   C        4.31626         5.44149         0.35776
   C        4.71446         4.63952        -0.72245
   C        4.62973         3.26918        -0.67769
   C        4.46195         6.87813         0.31765
   C        4.44372         7.60139        -0.82089
   C        4.57631         9.01094        -0.98174
   N        4.49271        10.01976        -0.05184
   C        4.20245         9.92978         1.36052
   C        5.47558         9.76965         2.18966
   C        4.68958        11.28544        -0.64053
   O        4.64306        12.32705        -0.01396
   C        4.91366        11.01012        -2.04001
   C        4.81846         9.60765        -2.21371
   C        5.04814         9.30420        -3.60681
   O        5.07302         8.25717        -4.22041
   N        5.27127        10.56399        -4.19652
   C        5.48488        10.69444        -5.61668
   C        4.22558        11.16488        -6.34101
   C        5.19494        11.58728        -3.27681
   C        5.40740        12.95085        -3.59783
   C        5.29858        13.93808        -2.67153
   C        5.52366        15.31552        -2.92891
   S        5.31014        16.46655        -1.63292
   C        5.75051        17.79264        -2.65454
   C        6.04574        17.34747        -3.94962
   C        5.91596        15.95532        -4.08480
   C        6.40394        18.21488        -5.06213
   O        6.39844        19.42207        -5.06266
   C        5.82411        19.13480        -2.19833
   C        5.34032        19.54823        -1.00618
   C        5.36369        20.86890        -0.46835
   S        4.80826        21.05030         1.17485
   C        5.12744        22.72533         1.16416
   C        5.63011        23.14153        -0.03474
   C        5.74882        22.09528        -0.98301
   C        6.33246        22.34359        -2.34138
   F        7.64750        21.89904        -2.33406
   C        6.33688        23.83750        -2.69724
   F        7.07618        24.01632        -3.83433
   C        6.92750        24.63986        -1.53665
   F        7.11395        25.94953        -1.89026
   C        5.95095        24.56735        -0.35962
   F        4.77709        25.21192        -0.72131
   H        4.98335        -2.17194        -0.21406
   H        3.04087        -3.04008         1.61044
   H        2.04739        -1.49263         3.30861
   H        0.44429        -0.48815         0.87778
   H        1.52219         1.69801         1.50841
   H        3.43478         2.92634         2.47387
   H        5.12036         5.11409        -1.60142
   H        4.94125         2.68513        -1.53081
   H        4.57796         7.37090         1.26788
   H        4.32279         7.09849        -1.77228
   H        3.49877         9.11503         1.54038
   H        3.72179        10.87418         1.63325
   H        6.06110         8.91490         1.85660
   H        5.21567         9.63240         3.23540
   H        6.09033        10.66150         2.09605
   H        5.76043         9.69721        -5.97150
   H        6.32009        11.37604        -5.80286
   H        3.41993        10.45238        -6.18266
   H        4.41928        11.23856        -7.40754
   H        3.90307        12.13688        -5.97396
   H        5.67051        13.19136        -4.61714
   H        5.02452        13.67842        -1.65718
   H        6.10274        15.44181        -5.01086
   H        6.68545        17.65016        -5.97184
   H        6.30191        19.81098        -2.88839
   H        4.88270        18.81004        -0.35686
   H        4.93046        23.32095         2.03308
   H        5.82695        21.78238        -3.13586
   H        5.32110        24.18819        -2.92008
   H        7.91108        24.24222        -1.25647
   H        6.33525        25.11791         0.50683
*
