# ORCA input file
# SCF done       -164.975430699374          0.000405147503
! CAM-B3LYP def2-SVP def2/J RIJCOSX Grid4 TightSCF
%maxcore 5000
%tddft
    Mode sTDDFT
    Ethresh 5.0
    maxcore 5000
end

%pal
  nprocs 6
  end
* xyz 0 1
   C        1.72242         1.01191        -1.38888
   N        0.84513         0.05699        -1.34019
   C        1.04967        -0.57202        -0.14217
   C        2.14646         0.07125         0.59124
   C        2.38501        -0.59114         1.87872
   O        3.20428        -0.30948         2.72385
   C        1.37401        -1.67128         1.86698
   C        0.58010        -1.61195         0.60948
   N       -0.35106        -2.60178         0.59052
   C       -0.18851        -3.24874         1.71209
   C        0.87510        -2.72124         2.55845
   C        2.59209         1.09335        -0.20540
   C        3.64521         2.01888         0.03435
   S        4.53575         1.96529         1.52356
   C        5.51648         3.28783         1.02118
   C        6.48989         3.86134         1.93419
   O        6.99146         4.95134         1.81732
   C        5.17192         3.74276        -0.25204
   C        4.10538         3.01786        -0.80058
   C        5.95470         4.74839        -0.93864
   N        5.46025         5.82145        -1.62540
   C        4.09409         6.28585        -1.63351
   C        3.64882         6.75098        -0.25073
   C        6.50410         6.59227        -2.19095
   O        6.30687         7.60776        -2.82893
   C        7.70880         5.88237        -1.83493
   C        7.32819         4.75377        -1.06267
   C        8.52335         4.03032        -0.68590
   O        8.68992         3.01721        -0.04367
   N        9.56627         4.78596        -1.25399
   C       10.94507         4.38114        -1.10954
   C       11.47672         3.69091        -2.36270
   C        9.09983         5.88534        -1.93633
   C        9.94997         6.80855        -2.59397
   C        9.46981         7.90822        -3.23593
   C       10.23483         8.87672        -3.93044
   S        9.45662        10.37852        -4.32956
   C       10.90288        10.99197        -5.07140
   C       11.92795        10.04195        -5.02639
   C       11.55538         8.85885        -4.39259
   C       12.49342         7.70530        -4.27709
   C       13.69951         7.81964        -5.21342
   C       14.68807         6.69906        -4.84609
   O       14.38765         5.81363        -4.09286
   O       15.87266         6.74805        -5.43623
   C       14.30418         9.23006        -5.14467
   O       15.44757         9.28244        -5.98496
   C       13.27528        10.26211        -5.61644
   C       10.96288        12.29245        -5.60650
   N       12.07372        12.78459        -6.17082
   C       11.76387        14.03258        -6.54162
   C       10.35834        14.36123        -6.19829
   C       10.03822        15.74719        -6.61468
   O        8.99480        16.34459        -6.49292
   C       11.30781        16.20120        -7.20501
   C       12.32737        15.13409        -7.13951
   N       13.49662        15.55434        -7.67675
   C       13.26926        16.78927        -8.06469
   C       11.92838        17.25492        -7.80124
   C        9.85952        13.25664        -5.60458
   H        1.76953         1.66339        -2.24366
   H       -0.81210        -4.09328         1.94942
   H        1.16130        -3.11512         3.51351
   H        6.71035         3.20936         2.79841
   H        3.71120         3.18506        -1.78669
   H        3.43320         5.49592        -2.00036
   H        4.06955         7.12215        -2.33793
   H        3.67491         5.92839         0.46068
   H        2.63476         7.13751        -0.30123
   H        4.30630         7.53847         0.10887
   H       10.96463         3.68151        -0.26948
   H       11.55745         5.25032        -0.85545
   H       10.90668         2.78654        -2.56034
   H       12.51962         3.42460        -2.21981
   H       11.40866         4.34182        -3.23073
   H       11.00826         6.61938        -2.53851
   H        8.40346         8.09644        -3.20415
   H       11.97183         6.77215        -4.49717
   H       12.86948         7.63518        -3.25110
   H       13.39239         7.63941        -6.25086
   H       15.99778         7.59200        -5.91485
   H       14.59923         9.44193        -4.10438
   H       15.75193        10.19461        -6.04611
   H       13.19436        10.20126        -6.70706
   H       13.60643        11.27893        -5.39282
   H       14.05072        17.36042        -8.53558
   H       11.54624        18.22765        -8.03971
   H        8.88402        13.06558        -5.20236
*
