# ORCA input file
# SCF done       -129.442981470813          0.000413285289
! CAM-B3LYP def2-SVP def2/J RIJCOSX Grid4 TightSCF
%maxcore 5000
%tddft
    Mode sTDDFT
    Ethresh 5.0
    maxcore 5000
end

%pal
  nprocs 6
  end
* xyz 0 1
   C       -1.10681         2.62303        -1.22195
   N       -2.24297         2.74942        -1.83393
   C       -2.02626         3.65829        -2.83070
   C       -0.64169         4.16396        -2.77881
   C       -0.39043         5.09922        -3.88532
   O        0.61189         5.74266        -4.11852
   C       -1.65579         5.05519        -4.63513
   C       -2.63667         4.18000        -3.93295
   N       -3.78973         4.09883        -4.64598
   C       -3.58120         4.80711        -5.72123
   C       -2.25883         5.41897        -5.78937
   C       -0.03366         3.46564        -1.76655
   C        1.33747         3.45804        -1.38203
   S        2.02268         2.22583        -0.36882
   C        3.60997         2.85083        -0.61407
   C        4.74063         2.18229         0.00309
   O        4.63772         1.22057         0.72405
   C        3.60763         3.95074        -1.47469
   C        2.30458         4.30987        -1.86696
   C        4.78927         4.61803        -1.94934
   N        5.85414         4.78889        -1.19723
   C        6.71773         5.53127        -1.92688
   C        6.14753         5.85393        -3.24508
   C        7.08992         6.67399        -4.03042
   O        6.93145         7.15575        -5.12928
   C        8.25102         6.77448        -3.12862
   C        7.97431         6.06916        -1.85234
   N        9.04650         6.14518        -1.02548
   C        9.94580         6.82370        -1.68924
   C        9.51860         7.24004        -3.01566
   C        4.93003         5.23149        -3.29759
   C        4.04025         5.15572        -4.41502
   S        2.86003         3.89564        -4.62837
   C        2.29370         4.60607        -6.08391
   C        1.09152         4.06121        -6.67695
   O        0.40831         3.22556        -6.12589
   C        3.03790         5.73893        -6.43609
   C        4.03022         6.02827        -5.47711
   C        2.83451         6.52235        -7.61552
   N        1.81812         6.33259        -8.44739
   C        1.98084         7.23158        -9.43503
   C        3.19748         8.05267        -9.20618
   C        3.37580         9.02731       -10.30782
   O        4.24417         9.85264       -10.45015
   C        2.22456         8.72921       -11.18133
   C        1.40182         7.63695       -10.60624
   N        0.34656         7.36028       -11.41335
   C        0.46490         8.18237       -12.42494
   C        1.61570         9.06296       -12.34598
   C        3.73316         7.59897        -8.05376
   H       -0.99636         1.95290        -0.38665
   H       -4.35207         4.90732        -6.46578
   H       -1.89181         6.01786        -6.59940
   H        5.71176         2.64550        -0.23764
   H        2.06013         5.18224        -2.44651
   H       10.90419         7.03405        -1.24732
   H       10.11103         7.79608        -3.71476
   H        0.82539         4.50487        -7.64795
   H        4.70757         6.86098        -5.53884
   H       -0.25659         8.16741       -13.22364
   H        1.88591         9.80176       -13.07398
   H        4.62432         7.91296        -7.54832
*
