# ORCA input file
# SCF done       -147.352494496272          0.000902171525
! CAM-B3LYP def2-SVP def2/J RIJCOSX Grid4 TightSCF
%maxcore 5000
%tddft
    Mode sTDDFT
    Ethresh 5.0
    maxcore 5000
end

%pal
  nprocs 6
  end
* xyz 0 1
   C        2.13185        -2.04267         2.02827
   O        1.28759        -1.71792         3.03051
   C        0.15717        -1.31542         2.39872
   C        0.39475        -1.42556         0.99995
   N        1.68057        -1.89757         0.83885
   C       -0.56443        -1.09127         0.06039
   C       -1.76293        -0.64394         0.59358
   C       -1.97506        -0.54101         1.99871
   C       -1.02987        -0.87135         2.94916
   O       -3.23070        -0.07565         2.18580
   C       -3.72961         0.08512         0.92561
   N       -2.91269        -0.23350        -0.02781
   C       -5.06856         0.58032         0.75380
   C       -5.89386         0.93366         1.83237
   N       -7.10447         1.39853         1.65572
   C       -7.55151         1.52917         0.40411
   N       -6.85272         1.19816        -0.68938
   C       -5.63595         0.73800        -0.51771
   C       -8.87621         2.08592         0.27465
   N       -9.59452         2.19353        -0.88730
   C       -9.24501         1.68918        -2.19403
   C       -9.44609         0.17944        -2.28348
   C      -10.84053         2.81362        -0.66984
   O      -11.64789         3.02022        -1.55342
   C      -10.85203         3.10832         0.74458
   C       -9.62764         2.64414         1.29842
   C       -9.63021         2.95794         2.71650
   O       -8.83640         2.78861         3.61004
   N      -10.88744         3.58104         2.91967
   C      -11.25655         4.09879         4.21419
   C      -11.05666         5.61042         4.29816
   C      -11.61090         3.68138         1.75931
   C      -12.90701         4.26930         1.69497
   C      -13.59798         4.43079         0.54861
   C      -14.91237         5.03989         0.53405
   N      -15.46142         5.39853         1.70210
   C      -16.66049         5.94512         1.65856
   C      -17.34075         6.15820         0.46949
   C      -16.68741         5.76245        -0.70557
   N      -15.48065         5.20304        -0.65402
   C      -17.29743         5.95614        -2.00664
   C      -16.69050         5.60544        -3.15146
   C      -17.27359         5.80652        -4.44269
   O      -18.51500         6.37770        -4.55594
   C      -18.75165         6.42416        -5.88496
   C      -17.61585         5.86508        -6.54117
   N      -16.72236         5.49604        -5.57387
   C      -17.53894         5.76442        -7.92174
   C      -18.64516         6.24683        -8.59813
   C      -19.76670         6.80005        -7.91940
   C      -19.86271         6.90950        -6.54519
   O      -20.66479         7.17262        -8.86516
   C      -20.07371         6.84260       -10.03387
   N      -18.91373         6.30775        -9.94980
   H        3.11055        -2.39572         2.28897
   H       -0.39423        -1.17159        -0.99835
   H       -1.20032        -0.79064         4.00867
   H       -5.55994         0.83583         2.85676
   H       -5.07634         0.47912        -1.40648
   H       -8.20729         1.94382        -2.41148
   H       -9.91320         2.19488        -2.89682
   H       -8.77886        -0.33210        -1.59448
   H       -9.23017        -0.15907        -3.29269
   H      -10.47419        -0.07893        -2.04049
   H      -10.60058         3.60156         4.93465
   H      -12.29346         3.83135         4.43543
   H      -10.01532         5.85722         4.10572
   H      -11.31903         5.96194         5.29224
   H      -11.67678         6.12628         3.56824
   H      -13.36239         4.60633         2.61559
   H      -13.20521         4.12264        -0.40974
   H      -17.08753         6.22306         2.61467
   H      -18.31993         6.60812         0.44742
   H      -18.27860         6.41086        -2.01949
   H      -15.71174         5.15110        -3.13847
   H      -16.68638         5.34486        -8.42477
   H      -20.71612         7.33028        -6.04248
   H      -20.60630         7.04678       -10.94223
*
