# ORCA input file
# SCF done       -143.597725537868          0.000700511093
! CAM-B3LYP def2-SVP def2/J RIJCOSX Grid4 TightSCF
%maxcore 5000
%tddft
    Mode sTDDFT
    Ethresh 5.0
    maxcore 5000
end

%pal
  nprocs 6
  end
* xyz 0 1
   C        9.54280        -6.05761         2.57666
   C       10.38260        -6.78058         3.36675
   S       11.05438        -8.11745         2.50519
   C       10.19385        -7.70207         1.04405
  Cl       10.32002        -8.63501        -0.36667
   C        9.43780        -6.58187         1.24830
   C        8.53201        -5.76162         0.45728
   O        8.27261        -5.89638        -0.72336
   C        8.04292        -4.69968         1.38920
   C        8.69194        -4.89115         2.68967
   C        8.53435        -4.15845         3.83283
   C        9.23507        -4.48999         5.01419
   N        9.79592        -4.74366         5.98157
   C        7.70090        -3.03348         4.00174
   N        7.04326        -2.11706         4.21476
   C        7.21787        -3.66708         1.08455
   C        6.53209        -3.41233        -0.15928
   C        6.01026        -4.40905        -0.97991
   C        5.44174        -4.06981        -2.20904
   C        5.30483        -2.70436        -2.49574
   N        5.74828        -1.75439        -1.69972
   C        6.36325        -2.08197        -0.58470
   C        5.04176        -5.09615        -3.13451
   S        3.79805        -4.87387        -4.33209
   C        3.99570        -6.47283        -5.00254
   C        5.01092        -7.14412        -4.32767
   C        5.58780        -6.35676        -3.28087
   N        6.58888        -7.07196        -2.70732
   C        6.67301        -8.28129        -3.36394
   C        7.63121        -9.23504        -2.99285
   N        8.41588       -10.01041        -2.67618
   C        5.71338        -8.37097        -4.35254
   C        3.21069        -6.89999        -6.09582
   S        3.41094        -8.46948        -6.80056
   C        2.21940        -8.13210        -8.02044
   C        1.88363        -9.17490        -8.94692
   O        1.12557        -9.08499        -9.89145
   C        1.68340        -6.85104        -7.85507
   C        2.22681        -6.18419        -6.75131
   C        0.64826        -6.26097        -8.67394
   C        0.54297        -6.27013       -10.01412
   C       -0.76649        -5.91564       -10.65881
   O       -1.68381        -5.32956       -10.14058
   C       -0.66658        -6.49435       -12.00164
   C       -1.48549        -6.67509       -13.07674
   S       -0.63738        -7.50526       -14.35913
   C        0.81579        -7.59088       -13.43442
   C        0.65210        -7.02099       -12.21113
   C        1.45859        -6.76304       -11.03813
   C        2.82322        -6.79227       -10.99522
   C        3.58288        -7.25816       -12.08966
   N        4.21476        -7.64188       -12.96643
   C        3.60456        -6.32786        -9.91939
   N        4.29107        -5.91889        -9.09460
  Cl       -3.10216        -6.20227       -13.25033
   H       10.65598        -6.62484         4.39151
   H        7.08251        -2.89492         1.83202
   H        5.99014        -5.43301        -0.64549
   H        4.81323        -2.37922        -3.40307
   H        6.75102        -1.26054         0.00194
   H        7.25783        -6.73227        -2.02781
   H        5.55231        -9.20399        -5.00593
   H        2.40840       -10.12534        -8.73165
   H        1.94747        -5.18600        -6.46347
   H       -0.15858        -5.77578        -8.13333
   H        1.68059        -8.06836       -13.85046
*
