# ORCA input file
# SCF done       -188.778801461418          0.000839271092
! CAM-B3LYP def2-SVP def2/J RIJCOSX Grid4 TightSCF
%maxcore 5000
%tddft
    Mode sTDDFT
    Ethresh 5.0
    maxcore 5000
end

%pal
  nprocs 6
  end
* xyz 0 1
   C        0.36439         0.54349         0.05472
   C       -0.81960         1.21463         0.08000
   S       -2.15144         0.13676        -0.11642
   C       -1.09662        -1.25100        -0.23964
  Cl       -1.71211        -2.81182        -0.46580
   C        0.20822        -0.86861        -0.12959
   C        1.51756        -1.52572        -0.15135
   O        1.75333        -2.70379        -0.27698
   C        2.49983        -0.41411         0.08890
   C        1.77384         0.85359         0.15652
   C        2.29706         2.11364         0.23591
   C        1.46308         3.25280         0.27230
   N        0.79636         4.18507         0.30628
   C        3.67120         2.42976         0.26285
   N        4.77395         2.74751         0.27103
   C        3.80608        -0.58589         0.39177
   C        4.55462        -1.82229         0.29878
   C        5.46540        -2.13793         1.30330
   C        6.17922        -3.32521         1.26542
   N        7.11544        -3.55928         2.33369
   O        6.97714        -2.91276         3.34911
   O        7.99523        -4.38001         2.15933
   C        6.03458        -4.23493         0.20010
   C        5.16090        -3.86806        -0.83116
   C        4.43688        -2.69890        -0.78793
   C        6.71517        -5.51211         0.17591
   C        7.16534        -6.07879        -0.96100
   C        7.85034        -7.31704        -1.13346
   N        8.43773        -8.13711        -0.20267
   C        8.56081        -7.94829         1.22494
   C        7.37034        -8.53918         1.97776
   C        9.01249        -9.27485        -0.80445
   O        9.59700       -10.13831        -0.18132
   C        8.74779        -9.11836        -2.21811
   C        8.04714        -7.89991        -2.38168
   C        7.78677        -7.71039        -3.78981
   O        7.22184        -6.83096        -4.40408
   N        8.36610        -8.84432        -4.39810
   C        8.31194        -9.02534        -5.82797
   C        9.64468        -8.70981        -6.50403
   C        8.93827        -9.68809        -3.47452
   C        9.60606       -10.89805        -3.80014
   C       10.13221       -11.71052        -2.85020
   C       10.85108       -12.91532        -3.13098
   C       11.31458       -13.74052        -2.14883
   C       12.04727       -14.92124        -2.47300
   C       12.53299       -15.78941        -1.50833
   C       13.26208       -16.94053        -1.84939
   N       13.86049       -17.87738        -2.13822
   C       12.33525       -15.56894        -0.13493
   N       12.18268       -15.39395         0.98944
   C       12.26100       -15.15508        -3.86801
   C       11.73988       -14.30757        -4.79492
   O       11.05966       -13.18460        -4.45112
   C       11.90616       -14.50987        -6.20994
   C       11.15337       -13.98297        -7.20335
   C       11.70338       -13.91448        -8.60196
   O       12.65594       -14.51652        -9.02616
   C       10.85646       -12.91724        -9.26569
   C       10.82229       -12.27895       -10.47087
   S        9.46430       -11.18107       -10.54281
   C        8.95053       -11.60665        -8.95040
   C        9.78188       -12.52915        -8.39688
   C        9.87541       -13.29131        -7.16792
   C        8.85625       -13.48491        -6.27502
   C        7.65281       -12.75918        -6.37080
   N        6.69706       -12.12613        -6.42034
   C        8.88832       -14.43628        -5.23530
   N        8.88015       -15.23219        -4.40904
  Cl       11.88766       -12.45146       -11.77477
   H       -1.00419         2.26303         0.20641
   H        4.36126         0.25621         0.78764
   H        5.61725        -1.47097         2.13978
   H        5.02971        -4.54224        -1.66279
   H        3.78653        -2.44620        -1.60911
   H        6.85320        -5.99702         1.12792
   H        7.01537        -5.56431        -1.90256
   H        8.69431        -6.88686         1.44240
   H        9.46690        -8.48310         1.52510
   H        6.42862        -8.12870         1.61879
   H        7.46674        -8.32617         3.03856
   H        7.34686        -9.61744         1.84051
   H        7.55082        -8.32520        -6.18467
   H        7.98267       -10.04303        -6.05431
   H        9.93729        -7.68612        -6.28404
   H        9.54515        -8.81713        -7.58100
   H       10.43381        -9.37407        -6.15832
   H        9.69552       -11.16078        -4.84447
   H       10.03247       -11.45570        -1.80454
   H       11.12165       -13.49552        -1.11688
   H       12.80690       -16.02919        -4.18577
   H       12.77370       -15.08417        -6.51099
   H        8.07544       -11.14416        -8.53855
*
