# ORCA input file
# SCF done       -179.831370820755          0.000926896961
! CAM-B3LYP def2-SVP def2/J RIJCOSX Grid4 TightSCF
%maxcore 5000
%tddft
    Mode sTDDFT
    Ethresh 5.0
    maxcore 5000
end

%pal
  nprocs 6
  end
* xyz 0 1
   C        6.28575         3.55542        -0.75922
   C        6.53095         4.89002        -0.65380
   S        8.11751         5.27800        -1.20834
   C        8.46304         3.60842        -1.59263
  Cl        9.95554         3.14218        -2.24259
   C        7.39039         2.81980        -1.29763
   C        7.05689         1.39475        -1.38495
   O        7.76276         0.49486        -1.77444
   C        5.67164         1.29682        -0.81500
   C        5.19994         2.63969        -0.48255
   C        3.95683         3.00891        -0.04880
   C        3.64432         4.36045         0.21496
   N        3.38018         5.45363         0.43952
   C        2.86563         2.14058         0.16012
   N        1.93659         1.48928         0.33344
   C        5.03929         0.14802        -0.47649
   C        5.42910        -1.20130        -0.81262
   C        5.20030        -2.21413         0.12138
   C        5.57082        -3.51973        -0.14178
   N        5.20050        -4.49605         0.85457
   O        5.32986        -4.17375         2.01598
   O        4.74864        -5.55562         0.47625
   C        6.18739        -3.87754        -1.35588
   C        6.32007        -2.86449        -2.31650
   C        5.96071        -1.56224        -2.05805
   C        6.71402        -5.18393        -1.66146
   C        7.23308        -6.05452        -0.76921
   C        7.72831        -7.33055        -1.15739
   N        8.11465        -8.29528        -0.26065
   C        7.97445        -8.23549         1.17522
   C        6.51925        -8.39859         1.60733
   C        8.54987        -9.46659        -0.90426
   O        8.93851       -10.45437        -0.31283
   C        8.42985        -9.16607        -2.31456
   C        7.92065        -7.84748        -2.43524
   C        7.81234        -7.53997        -3.84324
   O        7.42991        -6.54816        -4.43429
   N        8.25896        -8.70428        -4.48850
   C        8.33447        -8.77730        -5.92733
   C        9.76031        -8.56791        -6.43202
   C        8.62762        -9.68319        -3.59255
   C        9.08772       -10.96876        -3.97641
   C        9.41706       -11.92129        -3.06791
   C        9.85853       -13.23176        -3.39616
   S       10.13825       -14.37274        -2.12480
   C       10.55521       -15.61819        -3.25287
   C       10.98704       -16.88896        -2.73369
   O       11.27541       -17.87353        -3.38064
   C       10.49485       -15.14634        -4.57026
   C       10.12666       -13.79627        -4.62991
   C       10.83216       -15.90166        -5.75536
   C       10.51402       -17.17179        -6.06305
   C       11.26416       -17.87767        -7.15680
   O       11.93187       -17.35854        -8.01621
   C       11.03221       -19.29850        -6.88315
   C       11.48101       -20.49569        -7.35734
   S       10.74782       -21.81566        -6.47848
   C        9.83492       -20.73852        -5.48801
   C       10.08853       -19.44287        -5.81119
   C        9.64805       -18.13174        -5.38713
   C        8.51844       -17.86946        -4.66578
   C        7.74300       -18.90902        -4.10977
   N        7.10889       -19.74482        -3.64658
   C        7.99305       -16.58008        -4.45465
   N        7.50693       -15.55040        -4.30834
  Cl       12.58659       -20.77592        -8.60912
   H        5.89609         5.67152        -0.28599
   H        4.16150         0.21959         0.15519
   H        4.73551        -1.98714         1.07037
   H        6.74507        -3.12402        -3.27384
   H        6.06828        -0.81770        -2.82902
   H        6.73935        -5.44111        -2.71266
   H        7.30102        -5.80664         0.28040
   H        8.38931        -7.29382         1.54633
   H        8.57380        -9.06056         1.57020
   H        5.88715        -7.62662         1.17313
   H        6.45000        -8.33834         2.68979
   H        6.14368        -9.36766         1.28813
   H        7.69197        -7.97655        -6.30415
   H        7.93533        -9.73672        -6.26774
   H       10.12138        -7.58902        -6.12647
   H        9.77855        -8.62117        -7.51702
   H       10.43259        -9.32366        -6.03154
   H        9.15251       -11.18283        -5.03267
   H        9.33288       -11.69663        -2.01262
   H       11.04002       -16.90239        -1.62888
   H       10.02952       -13.26512        -5.55938
   H       11.45765       -15.38277        -6.47578
   H        9.19106       -21.13465        -4.72807
*
