# ORCA input file
# SCF done       -177.948439977628          0.000638600553
! CAM-B3LYP def2-SVP def2/J RIJCOSX Grid4 TightSCF
%maxcore 5000
%tddft
    Mode sTDDFT
    Ethresh 5.0
    maxcore 5000
end

%pal
  nprocs 6
  end
* xyz 0 1
   C        3.00410         2.85745         1.70469
   C        1.97800         3.63097         2.15207
   S        1.63193         3.30801         3.81148
   C        2.90066         2.11054         3.91312
  Cl        3.20976         1.26504         5.34310
   C        3.53277         1.98556         2.71141
   C        4.63576         1.19684         2.16443
   O        5.41227         0.48794         2.75707
   C        4.69730         1.59075         0.71280
   C        3.72764         2.64509         0.46721
   C        3.46839         3.29159        -0.71246
   C        2.46347         4.27855        -0.80222
   N        1.65352         5.08576        -0.89174
   C        4.13250         3.06678        -1.93498
   N        4.63006         2.92832        -2.96004
   C        5.61849         1.11013        -0.16737
   C        6.35952        -0.08197         0.03281
   C        6.02412        -1.25464         0.67875
   C        7.09019        -2.17274         0.48413
   C        8.12672        -1.47187        -0.26279
   O        9.24807        -1.75945        -0.55733
   O        7.57322        -0.22615        -0.56213
   C        6.76234        -3.33360         1.15816
   O        5.54438        -3.18086         1.76124
   C        5.00463        -1.93391         1.46472
   O        3.90466        -1.62192         1.81579
   C        7.50705        -4.52628         1.25675
   N        7.45149        -5.44913         2.27110
   C        6.56270        -5.43358         3.41041
   C        5.21332        -6.06141         3.07635
   C        8.41238        -6.45880         2.10239
   O        8.57734        -7.37017         2.88754
   C        9.07067        -6.12702         0.85355
   C        8.48704        -4.94574         0.35447
   C        9.04304        -4.68634        -0.96304
   O        8.75696        -3.89469        -1.82614
   N       10.03624        -5.68517        -1.11013
   C       10.83023        -5.76997        -2.31287
   C       10.30947        -6.84621        -3.26196
   C       10.04840        -6.55462        -0.05734
   C       10.93552        -7.65469         0.05390
   C       10.88195        -8.52923         1.09033
   C       11.79386        -9.61004         1.20815
   S       11.70128       -10.77855         2.51613
   C       13.11076       -11.52155         1.77649
   N       13.50379       -10.88625         0.70213
   N       12.78990        -9.85246         0.39367
   C       13.73670       -12.67897         2.31206
   C       14.79331       -13.27115         1.70669
   C       15.45117       -14.40572         2.24565
   C       16.39993       -15.16372         1.63551
   C       17.28531       -16.05003         2.45882
   O       17.10058       -16.38337         3.60335
   C       18.41822       -16.34604         1.57461
   C       19.61457       -16.99392         1.66327
   S       20.46546       -16.91952         0.13839
   C       19.19025       -16.02381        -0.60420
   C       18.17797       -15.79194         0.27285
   C       16.86571       -15.17244         0.26019
   C       16.15457       -14.86352        -0.86786
   C       16.74210       -14.95465        -2.14790
   N       17.22103       -15.00966        -3.18862
   C       14.77698       -14.55981        -0.89178
   N       13.64688       -14.37893        -0.97055
  Cl       20.27542       -17.78857         3.00456
   H        1.40174         4.36785         1.62850
   H        5.82846         1.63422        -1.09134
   H        6.43010        -4.40457         3.74972
   H        7.05894        -6.01437         4.19279
   H        4.70559        -5.48671         2.30647
   H        4.58967        -6.07599         3.96530
   H        5.35079        -7.08255         2.72862
   H       11.87346        -5.95773        -2.04677
   H       10.75657        -4.78958        -2.79082
   H       10.34100        -7.82843        -2.79577
   H       10.91965        -6.86695        -4.16022
   H        9.28304        -6.62730        -3.54549
   H       11.68832        -7.79888        -0.70707
   H       10.13561        -8.42545         1.86651
   H       13.31484       -13.09006         3.21834
   H       15.16315       -12.83068         0.79223
   H       15.24125       -14.66007         3.27942
   H       19.28290       -15.72533        -1.62961
*
