# ORCA input file
# SCF done       -187.163210946055          0.000820685936
! CAM-B3LYP def2-SVP def2/J RIJCOSX Grid4 TightSCF
%maxcore 5000
%tddft
    Mode sTDDFT
    Ethresh 5.0
    maxcore 5000
end

%pal
  nprocs 6
  end
* xyz 0 1
   C       12.41055        -1.36942         2.47921
   C       13.04298        -2.46427         2.97943
   S       14.75710        -2.26208         2.95146
   C       14.62237        -0.66125         2.26049
  Cl       15.99475         0.27026         1.91957
   C       13.31375        -0.33483         2.06627
   C       12.55276         0.80558         1.54260
   O       12.95478         1.87174         1.14926
   C       11.12647         0.33486         1.54864
   C       11.04731        -0.91804         2.27454
   C        9.94940        -1.50350         2.84790
   C       10.04701        -2.72598         3.54420
   N       10.09643        -3.73659         4.08556
   C        8.64694        -0.97354         2.85127
   N        7.56359        -0.59393         2.89184
   C       10.20780         1.05401         0.85517
   C        8.89709         0.68592         0.42846
   C        7.92398         1.68563         0.20977
   C        6.58571         1.36589        -0.17665
   N        5.64376         2.33351        -0.18932
   C        6.00606         3.55509         0.00609
   C        7.36928         3.89209         0.25698
   N        8.27126         2.98009         0.39859
   F        7.73853         5.15834         0.39583
   F        5.06421         4.49046         0.01727
   C        6.19157         0.04771        -0.49720
   C        7.17193        -0.94714        -0.34768
   C        8.50508        -0.63227         0.11863
   N        9.28650        -1.71548         0.13483
   S        8.44394        -2.98144        -0.37450
   N        7.05415        -2.24172        -0.65364
   C        4.88608        -0.14210        -1.06218
   N        4.00180        -1.15010        -0.82196
   C        4.10245        -2.19716         0.17077
   C        4.23347        -3.57083        -0.47835
   C        2.80392        -0.97605        -1.55886
   O        1.85323        -1.72164        -1.48698
   C        3.03329         0.23048        -2.32480
   C        4.31080         0.72614        -1.98893
   C        4.55366         1.89942        -2.80116
   O        5.51003         2.63463        -2.91753
   N        3.35831         2.06611        -3.54177
   C        3.25711         3.16278        -4.47404
   C        3.51583         2.71613        -5.91138
   C        2.45174         1.06946        -3.27519
   C        1.14471         0.83665        -3.78663
   C        0.43252         1.53304        -4.70120
   C       -0.89510         1.18954        -5.12926
   C       -1.58189         0.00912        -4.79371
   N       -2.81000        -0.22836        -5.18619
   C       -3.40582         0.67513        -5.97082
   N       -2.82458         1.79575        -6.40415
   C       -1.61440         2.05491        -5.97380
   C       -4.73451         0.40985        -6.46884
   C       -5.64025        -0.47937        -6.01176
   C       -6.78552        -0.87785        -6.90461
   O       -7.15911        -0.29731        -7.89194
   C       -7.26857        -2.13497        -6.32565
   C       -8.18395        -3.09529        -6.64267
   S       -8.19759        -4.35149        -5.42864
   C       -6.97476        -3.56088        -4.50175
   C       -6.57792        -2.40464        -5.09695
   C       -5.66736        -1.31140        -4.81539
   C       -5.13542        -1.03424        -3.58953
   C       -5.29787        -1.92171        -2.50389
   N       -5.41703        -2.64172        -1.61904
   C       -4.47788         0.16654        -3.25060
   N       -4.01000         1.15103        -2.89187
  Cl       -9.20852        -3.15672        -7.98927
   H       12.62765        -3.37887         3.35358
   H       10.52148         2.05013         0.55841
   H        3.18493        -2.16797         0.76755
   H        4.95431        -1.98449         0.81666
   H        3.35563        -3.77523        -1.08493
   H        4.31020        -4.33083         0.29370
   H        5.12144        -3.60801        -1.10246
   H        4.03069         3.87708        -4.17617
   H        2.28321         3.64586        -4.36732
   H        4.53141         2.33857        -6.00026
   H        3.40095         3.56016        -6.58590
   H        2.82923         1.92766        -6.21197
   H        0.69629        -0.03898        -3.33493
   H        0.83204         2.42142        -5.16656
   H       -1.12769        -0.76852        -4.19406
   H       -1.18157         2.98886        -6.31300
   H       -4.99561         0.95581        -7.36833
   H       -6.63073        -4.00900        -3.59078
*
