# ORCA input file
# SCF done       -196.212380562422          0.000776892256
! CAM-B3LYP def2-SVP def2/J RIJCOSX Grid4 TightSCF
%maxcore 5000
%tddft
    Mode sTDDFT
    Ethresh 5.0
    maxcore 5000
end

%pal
  nprocs 6
  end
* xyz 0 1
   C        1.63171         1.60772        -1.62103
   C        1.24297         2.77509        -2.20352
   S        1.53048         2.74938        -3.90377
   C        2.19036         1.13279        -3.83613
  Cl        2.74740         0.34497        -5.22698
   C        2.17609         0.66649        -2.55395
   C        2.57904        -0.55968        -1.86189
   O        3.06192        -1.55770        -2.34039
   C        2.19061        -0.32672        -0.42768
   C        1.66224         1.03057        -0.29484
   C        1.31818         1.68355         0.85527
   C        0.84209         3.01299         0.82935
   N        0.45171         4.09111         0.82085
   C        1.41705         1.15221         2.15793
   N        1.49038         0.77744         3.24000
   C        2.15520        -1.28248         0.52694
   C        2.71930        -2.61356         0.42415
   C        2.00296        -3.69843         0.92228
   C        2.49948        -4.98731         0.81154
   N        1.63478        -6.05294         1.24855
   O        0.75932        -5.77350         2.03778
   O        1.82254        -7.16480         0.79628
   C        3.76670        -5.24415         0.25107
   C        4.49147        -4.13075        -0.19722
   C        3.98388        -2.85426        -0.12783
   C        4.34628        -6.56857         0.20283
   C        5.21856        -6.94303        -0.75733
   C        5.90798        -8.17685        -0.93229
   N        5.87209        -9.34018        -0.21330
   C        5.04625        -9.69727         0.91714
   C        3.61385       -10.02672         0.50682
   C        6.76375       -10.31173        -0.74740
   O        6.90915       -11.41060        -0.26876
   C        7.37605        -9.65185        -1.88337
   C        6.83553        -8.35486        -1.96224
   C        7.46237        -7.67315        -3.07302
   O        7.31151        -6.56372        -3.53616
   N        8.37372        -8.61955        -3.58910
   C        9.11768        -8.30326        -4.78589
   C       10.42352        -7.57498        -4.47288
   C        8.34011        -9.80312        -2.88428
   C        9.10954       -10.97419        -3.07454
   C       10.28582       -11.10951        -3.74890
   C       10.94942       -12.35490        -3.85146
   N       10.45691       -13.47552        -3.32549
   C       11.36768       -14.43174        -3.55525
   C       12.54512       -13.88111        -4.24379
   C       13.54022       -14.92550        -4.53172
   O       14.60808       -14.79976        -5.09231
   C       12.89658       -16.12637        -3.97646
   C       11.57874       -15.78294        -3.38683
   N       10.97420       -16.88827        -2.89801
   C       11.80355       -17.87479        -3.14837
   C       13.01730       -17.47106        -3.82670
   C       12.27777       -12.56176        -4.47434
   C       13.14534       -11.68968        -5.20159
   C       12.80665       -10.65454        -5.99569
   C       13.77165        -9.90196        -6.73339
   C       14.97224       -10.29530        -7.22616
   C       15.95486        -9.22831        -7.61144
   O       15.71666        -8.05015        -7.72885
   C       17.23091        -9.93501        -7.74433
   C       18.53788        -9.61410        -7.96304
   S       19.52800       -11.05342        -7.97303
   C       18.16317       -12.07298        -7.69290
   C       17.01965       -11.34525        -7.59254
   C       15.60197       -11.59943        -7.40563
   C       15.01580       -12.81829        -7.60696
   C       15.78542       -13.96393        -7.90807
   N       16.40077       -14.89134        -8.18257
   C       13.62889       -13.05779        -7.63104
   N       12.50777       -13.29342        -7.69948
  Cl       19.21112        -8.07778        -8.20117
   H        0.80435         3.64496        -1.75614
   H        1.62965        -1.07731         1.45198
   H        1.02533        -3.55855         1.36089
   H        5.48462        -4.28084        -0.58931
   H        4.58204        -2.02645        -0.47159
   H        4.03443        -7.26172         0.96676
   H        5.45372        -6.24223        -1.54950
   H        5.07867        -8.90075         1.66436
   H        5.51195       -10.59073         1.34505
   H        3.10680        -9.16822         0.07507
   H        3.05416       -10.34971         1.37986
   H        3.61649       -10.83532        -0.21985
   H        8.48162        -7.63658        -5.37713
   H        9.28513        -9.22099        -5.35317
   H       10.20140        -6.62206        -3.99965
   H       10.96985        -7.38394        -5.39260
   H       11.05405        -8.15136        -3.79878
   H        8.72750       -11.85396        -2.57106
   H       10.79021       -10.26210        -4.18183
   H       11.55531       -18.87939        -2.85265
   H       13.81320       -18.12401        -4.12535
   H       14.19088       -11.96776        -5.13540
   H       11.77935       -10.33030        -6.08111
   H       13.54831        -8.84895        -6.88285
   H       18.30376       -13.13235        -7.61103
*
