# ORCA input file
# SCF done       -169.916435724143          0.000881040666
! CAM-B3LYP def2-SVP def2/J RIJCOSX Grid4 TightSCF
%maxcore 5000
%tddft
    Mode sTDDFT
    Ethresh 5.0
    maxcore 5000
end

%pal
  nprocs 6
  end
* xyz 0 1
   C        1.10061         1.69850         1.88606
   C       -0.01254         2.38028         2.27018
   S       -1.15019         1.33544         3.03918
   C       -0.10784        -0.05344         2.83987
  Cl       -0.56526        -1.58743         3.39256
   C        1.04838         0.30473         2.21273
   C        2.27846        -0.36085         1.77417
   O        2.55639        -1.53498         1.86096
   C        3.08977         0.72560         1.13657
   C        2.35836         1.98345         1.22669
   C        2.75995         3.22596         0.81637
   C        1.93388         4.35710         0.98928
   N        1.27142         5.28451         1.11915
   C        3.99273         3.53273         0.20668
   N        4.98042         3.84559        -0.28735
   C        4.24721         0.52157         0.45818
   C        4.97473        -0.71494         0.41001
   C        5.53681        -1.19325        -0.78939
   N        6.16136        -2.33698        -0.86971
   C        6.25373        -3.08290         0.23480
   N        5.83250        -2.68245         1.43741
   C        5.22912        -1.52471         1.52974
   C        6.86499        -4.37614         0.07320
   N        6.83528        -5.39304         0.99126
   C        6.27100        -5.36863         2.31986
   C        7.24044        -4.75551         3.32521
   C        7.46937        -6.54711         0.50263
   O        7.55474        -7.58598         1.13138
   C        7.92300        -6.17850        -0.81831
   C        7.53597        -4.83429        -1.05267
   C        8.01517        -4.45099        -2.36941
   O        7.96848        -3.42724        -3.00560
   N        8.65682        -5.62149        -2.84706
   C        9.22365        -5.66229        -4.17272
   C        8.28722        -6.33935        -5.17089
   C        8.59802        -6.65191        -1.94402
   C        9.13548        -7.94221        -2.18300
   C        9.00810        -8.95509        -1.28715
   C        9.48279       -10.27748        -1.48550
   S        9.13667       -11.48725        -0.27920
   C        9.93685       -12.71545        -1.19387
   C       10.45832       -12.19392        -2.38853
   C       10.19249       -10.82493        -2.53558
   C       11.15339       -12.97194        -3.40305
   O       11.36424       -14.16167        -3.38418
   C        9.98029       -14.07214        -0.80079
   C        9.33709       -14.59846         0.27159
   C        9.36152       -15.97522         0.61195
   C        9.58422       -17.06641        -0.17235
   C        9.93078       -18.35401         0.51526
   O        9.83546       -18.57931         1.69777
   C       10.44200       -19.21707        -0.55338
   C       11.01344       -20.44955        -0.66192
   S       11.38365       -20.80700        -2.33224
   C       10.75209       -19.29072        -2.86381
   C       10.29128       -18.55667        -1.81675
   C        9.63992       -17.27445        -1.61056
   C        9.02713       -16.57130        -2.61348
   C        9.10613       -16.98706        -3.95983
   N        9.15388       -17.30571        -5.06066
   C        8.21849       -15.43320        -2.44505
   N        7.53010       -14.51716        -2.37224
  Cl       11.35768       -21.55531         0.57437
   H       -0.24788         3.41960         2.15450
   H        4.65762         1.32744        -0.13809
   H        5.44119        -0.63741        -1.71296
   H        4.97625        -1.19893         2.52916
   H        6.07211        -6.41108         2.58413
   H        5.33842        -4.80308         2.30302
   H        8.17704        -5.30804         3.32850
   H        6.80749        -4.79513         4.32038
   H        7.43632        -3.71797         3.06890
   H       10.19421        -6.16549        -4.14203
   H        9.37719        -4.61997        -4.46626
   H        8.07613        -7.36542        -4.87734
   H        8.74061        -6.34253        -6.15826
   H        7.34768        -5.79518        -5.22201
   H        9.64274        -8.10831        -3.12174
   H        8.49203        -8.76834        -0.35393
   H       10.50998       -10.25890        -3.39296
   H       11.49239       -12.35516        -4.25690
   H       10.58298       -14.70958        -1.43381
   H        8.81494       -13.93599         0.95080
   H        9.22899       -16.20948         1.66483
   H       10.77761       -19.04687        -3.90717
*
