# ORCA input file
# SCF done       -156.435159676684          0.000769081365
! CAM-B3LYP def2-SVP def2/J RIJCOSX Grid4 TightSCF
%maxcore 5000
%tddft
    Mode sTDDFT
    Ethresh 5.0
    maxcore 5000
end

%pal
  nprocs 6
  end
* xyz 0 1
   C        2.11503        -0.68625         7.39147
   C        1.18419        -0.20222         8.25777
   S        0.54086        -1.45967         9.24936
   C        1.54637        -2.66694         8.48190
  Cl        1.48568        -4.29346         8.95094
   C        2.32413        -2.09729         7.51918
   C        3.33730        -2.54429         6.55577
   O        3.72350        -3.67361         6.36196
   C        3.73457        -1.30186         5.82195
   C        2.98038        -0.17252         6.34928
   C        3.06460         1.14608         5.98868
   C        2.26712         2.12872         6.61263
   N        1.62331         2.93987         7.10647
   C        3.91717         1.68013         5.00252
   N        4.58843         2.17937         4.21583
   C        4.55584        -1.27067         4.74005
   C        5.34536        -2.35779         4.24278
   C        5.50215        -2.56985         2.85993
   N        6.19488        -3.56001         2.36230
   C        6.76404        -4.41957         3.22040
   N        6.74588        -4.25599         4.54819
   C        6.07929        -3.24949         5.04781
   C        7.44683        -5.57222         2.70867
   C        7.55356        -5.83319         1.38668
   C        8.18317        -6.98224         0.84828
   O        8.71912        -7.94265         1.64172
   C        9.19707        -8.94139         0.85510
   C        8.99485        -8.60089        -0.47993
   C        8.34361        -7.35035        -0.48581
   O        7.95102        -6.64614        -1.56124
   O        9.34708        -9.25094        -1.61868
   C        9.77917       -10.06984         1.49118
   C       10.02424       -11.27386         0.91592
   C       10.60988       -12.39625         1.57130
   C       11.27248       -12.36870         2.75230
   C       11.82684       -13.51621         3.38619
   S       12.87122       -13.32444         4.75504
   C       13.12105       -15.03582         4.88512
   C       13.91964       -15.52368         5.97422
   O       14.22972       -16.67877         6.18306
   C       12.39055       -15.72066         3.90787
   C       11.65215       -14.85408         3.09091
   C       12.30832       -17.15653         3.76846
   C       13.29521       -18.06698         3.84484
   C       12.95248       -19.51545         4.04483
   O       11.87904       -20.03019         3.85303
   C       14.19069       -20.10202         4.56541
   C       14.59222       -21.29985         5.07830
   S       16.27709       -21.23511         5.53662
   C       16.42516       -19.59689         5.01804
   C       15.24493       -19.12845         4.53320
   C       14.74006       -17.90114         3.95714
   C       15.50451       -16.89442         3.43995
   C       16.90899       -16.89291         3.57615
   N       18.05060       -16.87466         3.68415
   C       14.99972       -15.81488         2.68976
   N       14.64412       -14.94126         2.03492
  Cl       13.67392       -22.70686         5.28964
   H        0.82684         0.80045         8.38337
   H        4.61223        -0.35755         4.15924
   H        5.01464        -1.92020         2.14302
   H        6.16101        -3.10243         6.11573
   H        7.86457        -6.24027         3.44605
   H        7.13392        -5.14707         0.66584
   H        8.19808        -7.13795        -2.35613
   H        9.94618        -9.97705        -1.41264
   H        9.97794        -9.92630         2.54338
   H        9.70432       -11.45323        -0.10218
   H       10.52785       -13.33847         1.04795
   H       11.43833       -11.42878         3.25844
   H       14.26196       -14.71625         6.64934
   H       11.02634       -15.20646         2.29138
   H       11.30774       -17.55233         3.62136
   H       17.36383       -19.09039         5.12441
*
