# ORCA input file
# SCF done       -139.817500135923          0.000971141284
! CAM-B3LYP def2-SVP def2/J RIJCOSX Grid4 TightSCF
%maxcore 5000
%tddft
    Mode sTDDFT
    Ethresh 5.0
    maxcore 5000
end

%pal
  nprocs 6
  end
* xyz 0 1
   C        3.10660         2.85581         1.57563
   C        2.86082         4.10872         2.04735
   S        4.02731         4.56938         3.23197
   C        4.86679         3.04249         3.09496
  Cl        6.24387         2.70536         4.02092
   C        4.25590         2.24423         2.17374
   C        4.45889         0.90349         1.61774
   O        5.30098         0.09162         1.92175
   C        3.34690         0.73341         0.62538
   C        2.52540         1.94011         0.61628
   C        1.42797         2.20945        -0.15503
   C        0.74613         3.44169        -0.05569
   N        0.17883         4.43597         0.01554
   C        0.85681         1.34162        -1.10723
   N        0.34748         0.68015        -1.89528
   C        3.09790        -0.41033        -0.05477
   C        3.95077        -1.57064        -0.07776
   C        3.43198        -2.86738         0.05461
   N        4.18551        -3.94028         0.02836
   C        5.50128        -3.77355        -0.10660
   N        6.08852        -2.59118        -0.28671
   C        5.33767        -1.51911        -0.29428
   C        6.34607        -4.95590        -0.07912
   C        5.82030        -6.25067        -0.00747
   N        6.58632        -7.31848         0.01636
   C        7.90686        -7.13236        -0.02233
   N        8.50657        -5.94232        -0.08838
   C        7.74271        -4.87406        -0.11928
   C        8.76280        -8.31548         0.01238
   C       10.14566        -8.19450         0.09623
   C       10.94069        -9.34356         0.13751
   C       10.26846       -10.57377         0.07794
   N        8.95783       -10.69538        -0.00622
   C        8.21816        -9.60311        -0.03461
   C       12.37349        -9.20043         0.24662
   C       13.26799       -10.20615         0.34378
   C       14.66779        -9.97057         0.47189
   N       15.60007       -10.98111         0.55906
   C       15.35126       -12.39807         0.46157
   C       15.12576       -12.83855        -0.98305
   C       16.90806       -10.48423         0.70093
   O       17.88505       -11.20065         0.80444
   C       16.74604        -9.04959         0.70257
   C       15.35474        -8.76823         0.55937
   C       15.19427        -7.33507         0.56129
   O       14.21622        -6.61729         0.46079
   N       16.50307        -6.83810         0.70071
   C       16.75177        -5.42044         0.78784
   C       16.97752        -4.96817         2.22880
   C       17.43167        -7.84960         0.78940
   C       18.84127        -7.61598         0.92678
   C       19.73169        -8.60188         1.05029
   H        2.07809         4.79282         1.78597
   H        2.17907        -0.49969        -0.62153
   H        2.37358        -3.03222         0.21261
   H        5.83649        -0.58678        -0.52003
   H        4.75136        -6.41335         0.02863
   H        8.24092        -3.91527        -0.17387
   H       10.59416        -7.21313         0.13549
   H       10.80844       -11.51077         0.09739
   H        7.14879        -9.74187        -0.10034
   H       12.73526        -8.18061         0.25760
   H       12.94232       -11.23545         0.33831
   H       14.49720       -12.66742         1.08971
   H       16.24603       -12.88729         0.85742
   H       14.26544       -12.33323        -1.41677
   H       14.95798       -13.91143        -1.01971
   H       16.00207       -12.60294        -1.58188
   H       15.85708        -4.93408         0.38818
   H       17.60639        -5.15615         0.15832
   H       16.10276        -5.20132         2.83085
   H       17.14282        -3.89454         2.25645
   H       17.83995        -5.46790         2.66457
   H       19.16694        -6.58494         0.92311
   H       19.43025        -9.63566         1.05632
   H       20.78347        -8.39475         1.14768
*
