# ORCA input file
# SCF done       -157.650031230226          0.000767298802
! CAM-B3LYP def2-SVP def2/J RIJCOSX Grid4 TightSCF
%maxcore 5000
%tddft
    Mode sTDDFT
    Ethresh 5.0
    maxcore 5000
end

%pal
  nprocs 6
  end
* xyz 0 1
   C       -8.13043        -2.99279         8.69976
   C       -7.90708        -4.09273         9.51407
   C       -7.21229        -5.20212         9.04960
   C       -6.71668        -5.24169         7.75580
   C       -6.93791        -4.15069         6.93052
   C       -7.64782        -3.02016         7.40001
   C       -7.73276        -2.03417         6.33189
   C       -8.19780        -0.75557         6.43856
   C       -8.69535        -0.19270         7.63522
   N       -9.11026         0.31787         8.57459
   C       -8.20051         0.18829         5.38700
   N       -8.21997         0.99816         4.57474
   C       -7.21702        -2.68677         5.12485
   C       -6.50322        -3.88921         5.57127
   C       -5.45414        -4.48927         4.93294
   C       -4.85706        -3.96602         3.76364
   N       -4.31946        -3.53187         2.84834
   C       -4.84012        -5.68735         5.34828
   N       -4.33815        -6.69264         5.58346
   C       -7.52857        -2.32356         3.85437
   C       -7.36294        -3.12435         2.68237
   S       -7.47086        -4.86660         2.73940
   C       -7.06527        -5.00589         1.07790
   C       -6.91988        -3.75893         0.50081
   C       -7.12040        -2.69619         1.40063
   N       -6.47719        -3.53660        -0.84623
   O       -5.80327        -4.39608        -1.36461
   O       -6.79026        -2.48278        -1.34945
   C       -6.82454        -6.32288         0.54075
   N       -7.23649        -6.66848        -0.65735
   N       -6.96196        -7.82852        -1.17401
   C       -6.24219        -8.76619        -0.57157
   C       -5.76534        -8.51063         0.74607
   C       -6.09604        -7.25181         1.33170
   N       -5.61827        -7.12579         2.56735
   S       -4.82752        -8.47109         2.95228
   N       -5.05892        -9.27079         1.57881
   C       -5.93011        -9.97784        -1.26919
   C       -6.51576       -10.57952        -2.37373
   C       -7.85297       -10.26945        -2.99097
   O       -8.54075       -11.18232        -3.37957
   O       -8.23787        -9.01897        -3.10223
   C       -5.81492       -11.75893        -2.76612
   C       -4.73399       -12.01016        -1.95054
   S       -4.55385       -10.88033        -0.69694
   C       -6.11220       -12.61337        -3.89165
   C       -5.84404       -13.96201        -3.96449
   C       -6.19287       -14.49796        -5.20872
   C       -6.71180       -13.53258        -6.08142
   S       -6.78727       -11.98690        -5.37754
   C       -7.04455       -14.17617        -7.31230
   C       -6.73248       -15.53487        -7.20527
   C       -6.18171       -15.78549        -5.88352
   C       -5.73323       -16.97367        -5.38266
   C       -5.19327       -17.07942        -4.08450
   N       -4.74496       -17.16489        -3.03202
   C       -5.76691       -18.16886        -6.12995
   N       -5.78992       -19.14512        -6.73143
   C       -7.03180       -16.25048        -8.38001
   C       -7.55636       -15.43353        -9.33556
   S       -7.69866       -13.78079        -8.83682
   H       -8.67313        -2.14193         9.07745
   H       -8.28185        -4.08409        10.52592
   H       -7.05561        -6.04594         9.70372
   H       -6.18236        -6.10801         7.39987
   H       -7.99093        -1.35951         3.68726
   H       -7.01109        -1.66465         1.11729
   H       -7.70101        -8.37105        -2.56395
   H       -4.03251       -12.81510        -2.04837
   H       -5.44623       -14.52948        -3.14324
   H       -6.87342       -17.30464        -8.51599
   H       -7.87731       -15.70027       -10.32255
*
