# ORCA input file
# SCF done       -278.764380220961          0.000283822980
! CAM-B3LYP def2-SVP def2/J RIJCOSX Grid4 TightSCF
%maxcore 5000
%tddft
    Mode sTDDFT
    Ethresh 5.0
    maxcore 5000
end

%pal
  nprocs 6
  end
* xyz 0 1
   C       -1.83395         8.53199         8.26805
   C       -1.53933         7.19467         8.29928
   C       -1.00720         6.53147         9.42692
   N       -0.58017         5.92866        10.30541
   C       -1.67474         6.27086         7.23929
   N       -1.72876         5.43995         6.44791
   C       -1.59662         9.45599         9.36893
   C       -1.87179        10.76810         8.91978
   C       -1.73049        11.87564         9.72090
   C       -1.30249        11.67692        11.03664
   C       -1.03832        10.35933        11.48272
   C       -1.17698         9.24173        10.66990
   S       -0.52858        10.33793        13.14374
   C       -0.67246        12.07441        13.21428
   C       -1.08205        12.64338        12.05561
  Br       -0.26973        12.97196        14.81078
   C       -2.31582        10.73266         7.51405
   O       -2.57734        11.71481         6.85094
   C       -2.36740         9.29601         7.13930
   C       -2.89467         8.68550         6.03827
   C       -3.48558         9.15456         4.82041
   C       -4.08533         8.17902         3.99650
   C       -4.69570         8.49143         2.80037
   C       -4.71628         9.81695         2.37307
   C       -4.11803        10.79336         3.20587
   C       -3.50308        10.49342         4.39690
   N       -4.28428        12.04085         2.64377
   C       -3.77824        13.26918         3.19275
   C       -5.01981        11.96546         1.49209
   O       -5.27347        12.92867         0.79873
   C       -5.33064        10.51255         1.26434
   C       -6.03589        10.02331         0.19897
   C       -5.99457         8.59385        -0.27074
   O       -5.33149         7.66512         0.13957
   N       -6.81805         8.50687        -1.36063
   C       -7.03066         7.29308        -2.09974
   C       -7.41577         9.72296        -1.62442
   C       -6.93244        10.69222        -0.71421
   C       -7.45257        11.98035        -0.78666
   C       -8.40592        12.27149        -1.74348
   C       -8.87569        11.30923        -2.64119
   C       -8.36571        10.00813        -2.57767
   C       -9.93040        11.65448        -3.59743
   C      -10.95997        10.75269        -3.87087
   C      -12.02938        11.08307        -4.68446
   C      -12.08962        12.35173        -5.24705
   C      -10.99883        13.22557        -5.03558
   C       -9.93950        12.90871        -4.21742
   N      -11.19122        14.38256        -5.76284
   C      -10.28140        15.49317        -5.81765
   C      -12.35647        14.32503        -6.48053
   O      -12.72619        15.22292        -7.20773
   C      -13.03077        13.03054        -6.11581
   C      -14.32371        12.71593        -6.42758
   C      -15.14135        11.68332        -5.69894
   O      -14.81645        10.89002        -4.84050
   N      -16.43359        11.82182        -6.12877
   C      -17.52248        11.02559        -5.63450
   C      -16.52880        12.78940        -7.10743
   C      -15.25351        13.35350        -7.33899
   C      -15.12899        14.28835        -8.35975
   C      -16.25631        14.68456        -9.05905
   C      -17.52265        14.17276        -8.77353
   C      -17.65410        13.18687        -7.78976
   C      -18.71301        14.66891        -9.46880
   C      -19.90072        14.86224        -8.75918
   C      -21.04188        15.35991        -9.35840
   C      -21.01490        15.67767       -10.71189
   C      -19.81990        15.44378       -11.43145
   C      -18.67682        14.96150       -10.83617
   N      -20.02081        15.74839       -12.76327
   C      -19.02728        15.66277       -13.79781
   C      -21.31364        16.13844       -12.98733
   O      -21.72465        16.48885       -14.07351
   C      -22.01367        16.12428       -11.65501
   C      -23.30510        16.52461       -11.44820
   C      -23.86124        16.94626       -10.11949
   O      -23.31837        17.03057        -9.03880
   N      -25.15809        17.34001       -10.33552
   C      -26.03071        17.79731        -9.29003
   C      -25.51065        17.16692       -11.65456
   C      -24.39391        16.69301       -12.38588
   C      -24.55991        16.41110       -13.73675
   C      -25.79160        16.62290       -14.32614
   C      -26.89443        17.07915       -13.59375
   C      -26.73988        17.37314       -12.23015
   C      -28.15908        17.26218       -14.25564
   C      -29.40540        17.17508       -13.73249
   C      -29.89861        16.68482       -12.45733
   C      -29.34987        15.68164       -11.70425
   C      -29.90697        15.21339       -10.49697
   N      -30.30340        14.82343        -9.49266
   C      -28.20291        14.94816       -12.07701
   N      -27.31812        14.26856       -12.34512
   C      -31.21755        17.27109       -12.25069
   C      -31.63398        17.89204       -13.45593
   C      -30.55815        17.77792       -14.46160
   O      -30.57789        18.13884       -15.61440
   C      -32.85976        18.49915       -13.58571
   C      -33.70778        18.50363       -12.47326
   C      -33.27619        17.89326       -11.27058
   C      -32.04093        17.27148       -11.14044
   S      -34.47539        18.02441       -10.02064
   C      -35.52839        18.88107       -11.11537
   C      -35.00974        19.06226       -12.35320
  Br      -37.21086        19.45576       -10.51921
   H       -1.94500        12.86304         9.34306
   H       -0.96591         8.26093        11.06090
   H       -1.22346        13.70047        11.92324
   H       -2.90412         7.60265         6.09287
   H       -4.06734         7.14730         4.31533
   H       -5.12802         7.71126         2.19899
   H       -3.05664        11.26606         4.99622
   H       -4.17464        13.43127         4.19659
   H       -4.09665        14.07752         2.53571
   H       -2.68809        13.24563         3.23992
   H       -6.39565         6.52620        -1.65752
   H       -6.75772         7.43077        -3.14761
   H       -8.07527         6.98076        -2.03647
   H       -7.11209        12.74942        -0.11617
   H       -8.82334        13.26600        -1.77783
   H       -8.70421         9.25319        -3.26952
   H      -10.94698         9.78170        -3.40035
   H      -12.81181        10.36564        -4.85256
   H       -9.12327        13.59796        -4.06905
   H      -10.15591        15.93440        -4.82699
   H      -10.71077        16.23335        -6.49197
   H       -9.30788        15.17577        -6.19723
   H      -17.11839        10.35646        -4.87558
   H      -17.96658        10.43693        -6.44008
   H      -18.28904        11.66112        -5.18702
   H      -14.17426        14.72260        -8.59575
   H      -16.15639        15.44126        -9.82207
   H      -18.61393        12.73708        -7.59089
   H      -19.91879        14.64845        -7.70168
   H      -21.92985        15.51582        -8.77246
   H      -17.78110        14.78223       -11.40976
   H      -18.18119        16.31390       -13.57016
   H      -19.49438        15.98747       -14.72692
   H      -18.67308        14.63564       -13.90822
   H      -25.44744        17.82833        -8.37031
   H      -26.87223        17.11208        -9.16175
   H      -26.40754        18.79709        -9.51418
   H      -23.73611        16.05413       -14.32937
   H      -25.92250        16.39852       -15.37362
   H      -27.56113        17.77689       -11.65811
   H      -28.11725        17.56132       -15.29843
   H      -33.15600        18.95666       -14.51652
   H      -31.75187        16.82375       -10.20388
   H      -35.52255        19.56902       -13.15012
*
