# ORCA input file
# SCF done       -215.264533491315          0.000882732450
! CAM-B3LYP def2-SVP def2/J RIJCOSX Grid4 TightSCF
%maxcore 5000
%tddft
    Mode sTDDFT
    Ethresh 5.0
    maxcore 5000
end

%pal
  nprocs 6
  end
* xyz 0 1
   C       -3.51905         1.02094        -3.98808
   C       -3.74877         1.04327        -5.33958
   C       -3.03653         0.26478        -6.27684
   N       -2.49826        -0.34029        -7.09045
   C       -4.72316         1.81984        -6.00008
   N       -5.49725         2.40747        -6.61338
   C       -2.51764         0.19922        -3.32045
   C       -2.58743         0.43813        -1.92683
   C       -1.77310        -0.19708        -1.02089
   C       -0.83559        -1.10911        -1.51493
   C       -0.76952        -1.34124        -2.91015
   C       -1.59757        -0.70286        -3.82443
   S        0.45916        -2.50425        -3.30613
   C        0.86274        -2.65916        -1.61679
   C        0.11662        -1.88173        -0.79615
  Br        2.22950        -3.83259        -1.09594
   C       -3.62725         1.44628        -1.64727
   O       -3.95437         1.84486        -0.55025
   C       -4.20442         1.80341        -2.96917
   C       -5.29733         2.58491        -3.19044
   C       -5.95527         3.45051        -2.25773
   C       -5.22995         4.14302        -1.32077
   S       -6.13409         5.22363        -0.36967
   C       -7.58563         4.73890        -1.19642
   C       -7.36636         3.79583        -2.21179
   C       -8.47763         3.34659        -2.97144
   C       -8.27738         2.29168        -4.02973
   C       -7.92729         0.93874        -3.40516
   C       -9.74919         3.85426        -2.71617
   C      -10.92592         3.50921        -3.59381
   C      -11.60068         2.19491        -3.19174
   C       -9.96453         4.74993        -1.64103
   C      -11.17582         5.36846        -1.14713
   C      -10.91459         6.25040        -0.13679
   S       -9.26363         6.36926         0.30945
   C       -8.85656         5.20426        -0.91086
   C      -12.54130         5.09853        -1.53941
   C      -13.51933         6.02392        -1.52807
   C      -14.88131         5.76099        -1.85015
   C      -15.92543         6.66412        -1.79391
   C      -17.14176         6.09047        -2.16913
   C      -17.02071         4.73811        -2.52511
   S      -15.41475         4.17280        -2.38519
   C      -18.30030         4.25149        -2.89772
   C      -19.23080         5.29710        -2.76883
   C      -18.53433         6.48666        -2.30526
   C      -19.07525         7.71229        -2.05034
   C      -18.29514         8.79860        -1.60147
   N      -17.66530         9.68379        -1.23479
   C      -20.45156         7.97296        -2.21872
   N      -21.57004         8.18396        -2.35719
   C      -20.52600         4.91881        -3.11829
   C      -20.58944         3.59647        -3.51725
   S      -19.01895         2.80540        -3.45265
   C      -21.73363         2.88362        -3.95427
   C      -21.79665         1.57674        -4.40624
   C      -23.09168         1.21633        -4.77442
   C      -24.02208         2.25468        -4.59537
   S      -23.30145         3.67518        -3.97632
   C      -25.29985         1.79588        -4.99871
   C      -25.17289         0.46423        -5.44400
   C      -23.78784         0.05314        -5.30477
   C      -23.26630        -1.17589        -5.58417
   C      -21.89958        -1.47002        -5.39820
   N      -20.78535        -1.69641        -5.25019
   C      -24.07366        -2.22102        -6.08071
   N      -24.74562        -3.05713        -6.48620
   C      -26.38130        -0.08839        -5.84923
   C      -27.43780         0.79883        -5.71017
   S      -26.90032         2.36146        -5.09750
   C      -28.79973         0.62647        -6.04218
   C      -29.49993        -0.52258        -6.23964
   C      -30.80145        -0.43487        -6.98146
   O      -31.40689         0.57604        -7.25146
   C      -31.10230        -1.82054        -7.31627
   C      -30.17387        -2.68779        -6.75067
   C      -29.22855        -1.92148        -5.95874
   C      -28.43955        -2.45925        -4.97586
   C      -27.71076        -1.71498        -4.03010
   N      -27.12802        -1.15085        -3.21740
   C      -28.36472        -3.85267        -4.76282
   N      -28.29335        -4.98162        -4.57388
   C      -30.43510        -4.03671        -7.05472
   C      -31.54230        -4.15124        -7.84317
   S      -32.29530        -2.64663        -8.21930
   H       -1.85558         0.00744         0.03508
   H       -1.50850        -0.91798        -4.87589
   H        0.23160        -1.85321         0.27198
   H       -5.70659         2.57689        -4.18764
   H       -4.16733         4.10841        -1.18758
   H       -7.50534         2.60268        -4.73395
   H       -9.18137         2.15824        -4.61648
   H       -7.03921         1.00041        -2.78113
   H       -7.74980         0.20275        -4.18629
   H       -8.74803         0.59117        -2.78140
   H      -10.61261         3.45263        -4.63714
   H      -11.64665         4.32538        -3.53628
   H      -10.96558         1.34467        -3.42382
   H      -12.54031         2.07523        -3.72689
   H      -11.80218         2.17275        -2.12274
   H      -11.63789         6.81142         0.42220
   H      -12.79810         4.08177        -1.79647
   H      -13.29710         7.05302        -1.28075
   H      -15.79490         7.68640        -1.48878
   H      -21.38823         5.56080        -3.09310
   H      -20.93432         0.93671        -4.46189
   H      -26.49159        -1.06926        -6.27403
   H      -29.36319         1.53570        -6.23058
   H      -29.84443        -4.87155        -6.72638
   H      -31.97123        -5.05503        -8.22979
*
