# ORCA input file
# SCF done       -162.975115078850          0.000636245662
! CAM-B3LYP def2-SVP def2/J RIJCOSX Grid4 TightSCF
%maxcore 5000
%tddft
    Mode sTDDFT
    Ethresh 5.0
    maxcore 5000
end

%pal
  nprocs 6
  end
* xyz 0 1
   C        9.20799         2.43209        -1.68304
   C        9.21347         2.88928        -0.40046
   C        8.13515         3.76359        -0.16462
   C        7.33388         3.94341        -1.29768
   S        7.89795         3.04836        -2.63631
   C        6.27296         4.83900        -0.97320
   C        6.41550         5.21658         0.36992
   C        7.58929         4.55443         0.92339
   C        8.07091         4.66156         2.19583
   C        7.44519         5.47027         3.16699
   N        6.93874         6.13045         3.95654
   C        9.22598         3.97568         2.62493
   N       10.16595         3.42228         2.97880
   C        5.42108         6.10010         0.79013
   C        4.52768         6.39358        -0.22381
   S        4.92168         5.56482        -1.71927
   C        3.38652         7.25515        -0.17361
   C        2.96921         7.94337         0.95246
   C        1.85368         8.79019         0.95674
   C        1.07221         9.04014        -0.15544
   C        1.42665         8.31371        -1.32280
   C        2.57332         7.43941        -1.32330
   N        2.63944         6.87475        -2.51040
   O        1.60235         7.34325        -3.20355
   N        0.85805         8.20024        -2.50641
   C       -0.05129         9.93767        -0.11813
   S       -1.03978        10.00273         1.30656
   C       -2.10178        11.17146         0.57424
   C       -1.67404        11.49411        -0.70493
   C       -0.50269        10.81266        -1.08561
   C        0.24568        11.09505        -2.35900
   N        1.67710        11.09969        -2.08255
   C       -0.26726        12.40518        -2.97688
   C       -1.78763        12.40210        -3.01998
   C       -2.36838        12.48766        -1.59959
   N       -3.81355        12.29148        -1.55939
   C       -3.23446        11.67774         1.26363
   C       -3.52062        11.39846         2.55552
   C       -4.66760        11.85978         3.27307
   C       -5.74045        12.55790         2.73804
   C       -6.84725        12.95528         3.49164
   C       -6.99025        12.70074         4.84731
   C       -5.90995        11.99686         5.44770
   C       -4.77250        11.58178         4.66461
   N       -3.94725        10.95529         5.47876
   O       -4.51847        10.97395         6.67862
   N       -5.69784        11.59283         6.68478
   C       -8.13365        13.09272         5.60810
   C       -8.35020        12.90294         6.95971
   C       -9.58840        13.40458         7.36569
   C      -10.31868        13.97633         6.31498
   S       -9.48567        13.90552         4.82938
   C      -11.56053        14.44631         6.82836
   C      -11.60945        14.17120         8.19943
   C      -10.37513        13.51256         8.58889
   C      -10.02415        13.08879         9.83662
   C      -10.87634        13.25277        10.94907
   N      -11.56525        13.38248        11.85679
   C       -8.78993        12.46248        10.11306
   N       -7.79407        11.95264        10.36290
   C      -12.81279        14.60170         8.79085
   C      -13.63529        15.18332         7.87499
   S      -12.97514        15.22429         6.27277
   H        9.90223         1.75767        -2.14290
   H        9.95109         2.61102         0.32986
   H        5.35008         6.50878         1.78096
   H        3.52368         7.83683         1.87137
   H        1.60511         9.29491         1.87906
   H        0.06618        10.27018        -3.06028
   H        1.90881        11.85670        -1.44685
   H        2.19627        11.24373        -2.94158
   H        0.14278        12.51647        -3.98318
   H        0.07851        13.25077        -2.37395
   H       -2.13254        11.47839        -3.49365
   H       -2.15505        13.24504        -3.61062
   H       -2.18305        13.49773        -1.20293
   H       -4.04312        11.35138        -1.86654
   H       -4.26539        12.94294        -2.19266
   H       -3.87354        12.31240         0.66721
   H       -2.84102        10.78054         3.12893
   H       -5.73510        12.79843         1.68641
   H       -7.64144        13.48720         2.98640
   H       -7.62668        12.42033         7.59119
   H      -13.06123        14.49125         9.83047
   H      -14.60893        15.60049         8.03686
*
