# ORCA input file
# SCF done       -176.082522555912          0.000738042502
! CAM-B3LYP def2-SVP def2/J RIJCOSX Grid4 TightSCF
%maxcore 5000
%tddft
    Mode sTDDFT
    Ethresh 5.0
    maxcore 5000
end

%pal
  nprocs 6
  end
* xyz 0 1
   C        4.80956         0.37280        -4.39956
   C        5.43177         1.11181        -3.44053
   C        4.58820         2.12622        -2.94743
   C        3.33066         2.12093        -3.56289
   S        3.18694         0.88562        -4.73141
   C        2.54813         3.17342        -3.00800
   C        3.31621         3.83553        -2.04189
   C        4.62863         3.20199        -1.97572
   C        5.67308         3.56271        -1.17515
   C        5.58745         4.64485        -0.27470
   N        5.51960         5.52671         0.45529
   C        6.90940         2.88430        -1.20129
   N        7.91699         2.33702        -1.21945
   C        2.63582         4.89261        -1.43519
   C        1.35771         5.04011        -1.93979
   S        0.98935         3.84968        -3.17950
   C        0.38963         6.01267        -1.58062
   C       -0.85512         6.21135        -2.14513
   C       -1.53066         7.28269        -1.55873
   C       -0.79373         7.89882        -0.53159
   S        0.72956         7.16194        -0.29146
   C       -1.55000         8.98027        -0.01856
   C       -2.76157         9.05470        -0.72641
   C       -2.79302         7.98259        -1.71104
   C       -3.79789         7.69810        -2.58945
   C       -4.98553         8.45666        -2.64293
   N       -5.95251         9.07160        -2.68959
   C       -3.71574         6.62442        -3.50029
   N       -3.65154         5.75391        -4.24439
   C       -3.57018        10.11062        -0.31394
   C       -2.99200        10.84341         0.70905
   S       -1.41619        10.20244         1.16917
   C       -3.52523        11.99227         1.35963
   C       -2.90155        12.60022         2.42315
   C       -3.36938        13.73175         3.08885
   C       -4.55542        14.44627         2.59114
   C       -5.33442        14.01574         1.57606
   S       -5.04785        12.57472         0.69228
   C       -4.66824        15.60902         3.40091
   C       -3.64618        15.61704         4.34917
   C       -3.71367        16.74799         5.19291
   C       -4.75943        17.55161         4.86720
   S       -5.70484        16.97273         3.53617
   C       -2.83983        14.43378         4.19063
   C       -1.77751        14.11952         5.07432
   C       -1.17678        12.91301         5.23161
   C       -0.14050        12.60383         6.16464
   C        0.44070        13.48737         7.06936
   C        1.40836        13.09588         7.98456
   C        1.88825        11.79386         8.08312
   C        1.35149        10.85976         7.15601
   C        0.34958        11.26872         6.20976
   N       -0.03028        10.26582         5.42056
   S        0.79041         8.94267         5.82487
   N        1.66211         9.57209         7.01929
   C        2.85207        11.40635         9.06548
   C        3.35340        10.14220         9.30917
   C        4.26201        10.13109        10.36826
   C        4.46011        11.39730        10.93410
   S        3.52612        12.60188        10.16896
   C        5.39644        11.27480        11.99922
   C        5.78306         9.93333        12.10285
   C        5.08472         9.16614        11.08824
   C        5.16593         7.82324        10.86056
   C        5.99487         6.98206        11.63164
   N        6.66463         6.29342        12.25841
   C        4.42370         7.17883         9.84859
   N        3.82335         6.63775         9.03507
   C        6.71168         9.72055        13.14025
   C        7.00539        10.88034        13.78915
   S        6.16465        12.26134        13.16150
   H        5.20414        -0.45931        -4.94739
   H        6.43858         0.93456        -3.10936
   H        3.03696         5.53231        -0.66968
   H       -1.23394         5.60438        -2.94785
   H       -4.53385        10.34571        -0.72859
   H       -1.96293        12.16496         2.73573
   H       -6.21288        14.55120         1.25205
   H       -3.03143        16.96346         5.99519
   H       -5.04977        18.47304         5.33299
   H       -1.47697        14.93767         5.71629
   H       -1.50867        12.06192         4.65758
   H        0.12478        14.51875         7.07743
   H        1.80221        13.83744         8.66561
   H        3.05293         9.28958         8.72870
   H        7.14030         8.76883        13.39581
   H        7.67491        11.02201        14.61364
*
