# ORCA input file
# SCF done       -188.044479994276          0.000527466206
! CAM-B3LYP def2-SVP def2/J RIJCOSX Grid4 TightSCF
%maxcore 5000
%tddft
    Mode sTDDFT
    Ethresh 5.0
    maxcore 5000
end

%pal
  nprocs 6
  end
* xyz 0 1
   C       -7.85367         6.39861         8.43681
   C       -7.22493         5.23448         8.11816
   C       -6.41452         5.38491         6.97583
   C       -6.45779         6.68553         6.45741
   S       -7.48109         7.70846         7.36244
   C       -5.62190         6.74604         5.30661
   C       -5.05485         5.48139         5.10673
   C       -5.53094         4.58333         6.15310
   C       -5.20480         3.26708         6.31023
   C       -4.32341         2.60577         5.43018
   N       -3.60419         2.06898         4.71563
   C       -5.72391         2.48341         7.36142
   N       -6.13995         1.84326         8.21713
   C       -4.21226         5.42578         3.99647
   C       -4.13691         6.64033         3.33837
   S       -5.11520         7.87447         4.12935
   C       -3.39049         6.97577         2.17903
   S       -2.90008         8.61308         1.90379
   C       -2.10875         8.23446         0.40824
   C       -2.18921         6.85773         0.15245
   C       -2.93923         6.14665         1.14272
   C       -3.15656         4.76587         0.97222
   C       -2.58270         4.09902        -0.07347
   S       -2.84256         2.33557        -0.16711
   C       -1.23055         1.81168         0.54301
   C       -1.18211         0.30128         0.63841
   C       -1.77317         4.78711        -1.01179
   S       -0.91269         3.94805        -2.31941
   C       -2.29567         3.21933        -3.29250
   C       -2.04828         1.75336        -3.58020
   C       -1.58352         6.13936        -0.89473
   C       -1.53401         9.28955        -0.34372
   C       -1.36383         9.31286        -1.68625
   C       -0.76684        10.42597        -2.36324
   C       -0.82732        10.56200        -3.76201
   N       -0.25522        11.54893        -4.40693
   C        0.42047        12.46240        -3.68549
   C        0.44009        12.35163        -2.27903
   N       -0.13559        11.36884        -1.63850
   C        1.09131        13.51655        -4.37330
   S        2.27069        14.48670        -3.55810
   C        2.61490        15.43362        -4.97150
   C        1.80340        15.01944        -6.04222
   C        0.94866        13.92671        -5.70591
   C        0.08772        13.39230        -6.68034
   C        0.05863        13.93291        -7.93909
   S       -1.05160        13.19831        -9.11695
   C        0.11200        12.66572       -10.44111
   C       -0.36413        13.11482       -11.80697
   C        0.86334        15.05750        -8.25622
   S        0.78247        15.86519        -9.84248
   C       -0.90666        16.58179        -9.71841
   C       -1.21070        17.37963       -10.96954
   C        1.73569        15.57030        -7.33296
   C        3.60367        16.43630        -4.98208
   C        4.37621        16.76284        -3.91093
   C        5.40356        17.73372        -3.91709
   C        5.85091        18.53987        -4.95500
   C        6.90914        19.35617        -4.56714
   C        7.27950        19.18062        -3.22475
   S        6.31920        18.00829        -2.43954
   C        8.36836        20.04959        -2.94241
   C        8.68318        20.76857        -4.10384
   C        7.78231        20.36401        -5.16260
   C        7.74734        20.81919        -6.44920
   C        8.64582        21.79552        -6.92657
   N        9.37252        22.59052        -7.32075
   C        6.80781        20.34204        -7.38586
   N        6.04236        19.95655        -8.14829
   C        9.76061        21.65551        -3.91113
   C       10.23209        21.59406        -2.63624
   S        9.38400        20.46039        -1.63307
   H       -8.52780         6.58134         9.24936
   H       -7.33986         4.32188         8.67393
   H       -3.64243         4.56222         3.71161
   H       -3.77263         4.21515         1.66320
   H       -1.15607         2.27267         1.52841
   H       -0.44657         2.19938        -0.10793
   H       -1.98926        -0.06519         1.26859
   H       -0.23272        -0.00690         1.07122
   H       -1.27902        -0.15013        -0.34675
   H       -2.34979         3.80002        -4.21391
   H       -3.20531         3.36381        -2.71406
   H       -1.09903         1.61916        -4.09399
   H       -2.84608         1.36392        -4.20920
   H       -2.02961         1.18662        -2.65289
   H       -0.94191         6.64250        -1.59877
   H       -1.26310        10.18321         0.20408
   H       -1.72531         8.50994        -2.31119
   H       -1.35951         9.84262        -4.37132
   H        0.93523        13.09925        -1.67150
   H       -0.53261        12.54791        -6.43002
   H        0.15767        11.57829       -10.37627
   H        1.08571        13.08655       -10.20029
   H       -1.37208        12.75362       -11.99857
   H        0.30070        12.72222       -12.57368
   H       -0.36192        14.19997       -11.86937
   H       -0.91372        17.21611        -8.83139
   H       -1.60870        15.75877        -9.58909
   H       -0.47927        18.17342       -11.10482
   H       -2.20014        17.82475       -10.88807
   H       -1.18926        16.73872       -11.84825
   H        2.34585        16.41817        -7.60195
   H        3.74891        16.94963        -5.92127
   H        4.21606        16.24021        -2.97649
   H        5.42273        18.52227        -5.93976
   H       10.16661        22.30190        -4.66762
   H       11.04019        22.15070        -2.20584
*
