# ORCA input file
# SCF done       -222.567021604284          0.000664935406
! CAM-B3LYP def2-SVP def2/J RIJCOSX Grid4 TightSCF
%maxcore 5000
%tddft
    Mode sTDDFT
    Ethresh 5.0
    maxcore 5000
end

%pal
  nprocs 6
  end
* xyz 0 1
   C       -9.51869       -11.70219         6.58466
   C      -10.66721       -12.40787         6.36239
   F      -10.91209       -13.52999         7.04820
   C      -11.61409       -11.95918         5.41862
   F      -12.73526       -12.66364         5.23027
   C      -11.39494       -10.81454         4.70472
   C      -10.21361       -10.07408         4.89924
   C       -9.26010       -10.52120         5.86153
   C       -8.07329        -9.78985         6.08185
   C       -7.82804        -8.67138         5.32728
   C       -8.75591        -8.26239         4.32763
   C       -9.93848        -8.91846         4.13620
   C       -8.21640        -7.10821         3.58120
   O       -8.78429        -6.45899         2.74006
   C       -6.83033        -6.91969         4.12325
   C       -6.69649        -7.76095         5.30828
   C       -5.73607        -7.65828         6.28102
   C       -5.76704        -8.40235         7.48136
   N       -5.75135        -8.94921         8.48969
   C       -4.62802        -6.78771         6.25891
   N       -3.68984        -6.12320         6.29318
   C       -5.81684        -6.16605         3.62807
   C       -5.74332        -5.36203         2.45833
   N       -6.65005        -5.32760         1.50147
   C       -6.15407        -4.51167         0.54856
   C       -4.85976        -3.94639         0.94494
   C       -4.32300        -3.08572        -0.12029
   O       -3.29957        -2.43617        -0.12176
   C       -5.34070        -3.21513        -1.18187
   C       -6.44161        -4.08956        -0.72807
   N       -7.35611        -4.25663        -1.71637
   C       -6.89749        -3.56273        -2.73015
   C       -5.63735        -2.89396        -2.46620
   C       -4.56035        -4.50398         2.16495
   C       -3.41709        -4.37251         2.99522
   C       -2.37866        -3.53722         2.73174
   C       -1.18793        -3.45175         3.51300
   C       -0.87041        -4.31324         4.54666
   C        0.33047        -4.30994         5.24104
   C        1.29146        -3.21796         5.09261
   C        1.18150        -2.25331         4.14555
   S       -0.09180        -2.18438         3.00439
   C        2.26752        -3.43170         6.10617
   C        1.96049        -4.59359         6.82289
   C        2.90994        -4.86515         7.83151
   C        3.88698        -3.92140         7.85962
   S        3.70437        -2.67903         6.66630
   C        0.78098        -5.19282         6.26385
   C        0.22451        -6.43041         6.62673
   C       -0.59060        -7.15760         5.79817
   C       -1.34420        -8.27362         6.18691
   N       -1.29259        -8.84325         7.39484
   C       -2.28584        -9.73380         7.42624
   C       -3.06854        -9.72168         6.17739
   C       -4.23191       -10.61785         6.28948
   O       -5.18151       -10.70590         5.52814
   C       -4.02148       -11.26204         7.58379
   C       -2.84534       -10.68226         8.26408
   N       -2.66666       -11.24705         9.47268
   C       -3.63670       -12.13281         9.58797
   C       -4.51416       -12.19398         8.44833
   C       -2.43126        -8.83488         5.34556
   C       -2.72482        -8.45620         4.00760
   C       -3.86921        -8.81231         3.37246
   C       -4.18820        -8.37306         2.06653
   C       -5.33809        -8.63514         1.38578
   C       -5.75482        -7.74171         0.27023
   O       -5.03522        -7.00198        -0.36541
   C       -7.21490        -7.90771         0.17980
   C       -8.11564        -7.19128        -0.55444
   C       -9.48680        -7.50581        -0.44642
   C       -9.89884        -8.59232         0.37680
   C      -11.27008        -8.90879         0.45584
   C      -12.18762        -8.16806        -0.23465
   C      -11.77907        -7.08161        -1.03455
   C      -10.45567        -6.75919        -1.14381
   F      -12.70639        -6.37188        -1.69333
   F      -13.49174        -8.46986        -0.15210
   C       -8.94381        -9.32193         1.11844
   C       -7.62472        -8.96100         1.04980
   C       -6.44905        -9.50026         1.72357
   C       -6.38059       -10.67804         2.42302
   C       -5.16444       -11.33738         2.71287
   N       -4.20188       -11.94360         2.85903
   C       -7.51245       -11.39884         2.84784
   N       -8.41457       -11.97353         3.26627
   H       -8.80326       -12.05770         7.30914
   H      -12.13000       -10.48624         3.98651
   H       -7.36752       -10.14869         6.81259
   H      -10.64350        -8.56669         3.39827
   H       -4.89256        -6.19966         4.18635
   H       -7.44469        -3.52611        -3.65627
   H       -5.09479        -2.29006        -3.16614
   H       -3.39410        -4.97760         3.89056
   H       -2.42974        -2.89681         1.85985
   H       -1.62069        -5.02821         4.84739
   H        1.91404        -1.46953         4.03282
   H        2.87175        -5.70461         8.50093
   H        4.73013        -3.86906         8.52024
   H        0.45952        -6.84149         7.59890
   H       -0.70057        -6.83982         4.77278
   H       -3.72370       -12.72487        10.48213
   H       -5.35731       -12.84741         8.34149
   H       -1.99267        -7.86086         3.47650
   H       -4.59208        -9.40860         3.90935
   H       -3.50827        -7.67242         1.59123
   H       -7.80178        -6.37526        -1.18702
   H      -11.60073        -9.74112         1.05822
   H      -10.14833        -5.92414        -1.75329
   H       -9.27795       -10.13426         1.74462
*
