# ORCA input file
# SCF done       -136.107526596273          0.000400558893
! CAM-B3LYP def2-SVP def2/J RIJCOSX Grid4 TightSCF
%maxcore 5000
%tddft
    Mode sTDDFT
    Ethresh 5.0
    maxcore 5000
end

%pal
  nprocs 6
  end
* xyz 0 1
   C        4.55533         4.18627        -1.08872
   C        4.32072         3.03603        -0.38328
   C        3.06493         2.78672         0.18185
   C        2.02724         3.68287         0.04576
   C        2.23282         4.86422        -0.71130
   C        3.51563         5.11734        -1.26621
   N        3.74425         6.25140        -1.96621
   C        2.75762         7.09063        -2.13507
   C        1.45167         6.80131        -1.63376
   N        1.21824         5.71841        -0.94493
   C        0.29493         7.70041        -1.91047
   C        3.03154         8.34352        -2.89784
   C        0.73021         3.41985         0.67544
   N        0.41706         2.14019         0.90291
   C       -0.76088         1.90566         1.45565
   C       -1.64240         2.91605         1.79233
   C       -1.21404         4.23113         1.54723
   N       -0.02136         4.45782         0.99319
   C       -2.01343         5.36828         1.91794
   C       -1.66688         6.64861         1.62908
   C       -2.38187         7.75553         2.12698
   C       -2.05787         9.07664         1.96447
   C       -2.64354        10.15111         2.68789
   C       -2.05665        11.35563         2.47037
   C       -1.01162        11.32559         1.51250
   S       -0.79616         9.69415         0.90664
   C       -0.24272        12.39703         1.11021
   C       -0.17804        13.65327         1.76858
   C        0.73426        14.50230         1.23537
   C        1.40267        13.98750         0.08854
   S        0.82282        12.37863        -0.28946
   C        2.38206        14.59978        -0.63029
   C        2.91315        14.01993        -1.82557
   N        3.99468        14.58370        -2.37958
   C        4.45347        14.02174        -3.48064
   C        3.83448        12.93862        -4.08529
   C        2.67492        12.44540        -3.46984
   N        2.25783        12.97008        -2.32081
   C        1.87680        11.40603        -4.08750
   C        0.62919        11.14011        -3.67136
   C       -0.28164        10.15427        -4.20011
   C       -0.01042         9.33295        -5.28016
   C       -0.91499         8.35517        -5.70603
   C       -2.10538         8.16227        -5.05457
   C       -2.43324         8.97950        -3.95698
   C       -1.53755         9.99814        -3.54289
   N       -1.88010        10.83020        -2.53955
   C       -3.02736        10.65493        -1.94039
   C       -3.88892         9.57452        -2.30017
   N       -3.59429         8.78149        -3.29493
   C       -5.15921         9.31561        -1.56060
   C       -3.41364        11.63945        -0.88763
   H        5.52056         4.40875        -1.51686
   H        5.11170         2.31292        -0.24772
   H        2.89421         1.88325         0.74693
   H        0.50054         8.71546        -1.57509
   H       -0.58631         7.31938        -1.40218
   H        0.09972         7.73080        -2.98108
   H        4.07228         8.35628        -3.20913
   H        2.82555         9.21686        -2.28041
   H        2.38569         8.39651        -3.77256
   H       -0.99737         0.86261         1.63141
   H       -2.60540         2.70859         2.23136
   H       -2.91693         5.16156         2.47777
   H       -0.77284         6.81698         1.04422
   H       -3.22495         7.54694         2.77625
   H       -3.45511         9.98301         3.37446
   H       -2.35991        12.26900         2.94969
   H       -0.76659        13.87337         2.64162
   H        0.95622        15.48463         1.61332
   H        2.77998        15.55255        -0.31993
   H        5.34416        14.47170        -3.90236
   H        4.20677        12.51243        -5.00267
   H        2.33099        10.90298        -4.92975
   H        0.24228        11.70203        -2.83347
   H        0.92199         9.44185        -5.81375
   H       -0.65789         7.73713        -6.55402
   H       -2.80500         7.39868        -5.35531
   H       -4.94728         9.11339        -0.51129
   H       -5.66078         8.45730        -1.99802
   H       -5.81525        10.18325        -1.61229
   H       -2.60607        12.35243        -0.74817
   H       -3.62229        11.13596         0.05466
   H       -4.31437        12.17362        -1.18866
*
