# ORCA input file
# SCF done       -198.139607379745          0.000613272397
! CAM-B3LYP def2-SVP def2/J RIJCOSX Grid4 TightSCF
%maxcore 5000
%tddft
    Mode sTDDFT
    Ethresh 5.0
    maxcore 5000
end

%pal
  nprocs 6
  end
* xyz 0 1
   C        2.02700        -2.95388        -1.85077
   C        0.78948        -3.46770        -1.57944
   F        0.10892        -4.10633        -2.55182
   C        0.19013        -3.35788        -0.31848
   C        0.86670        -2.71368         0.68052
   C        2.14544        -2.16586         0.45632
   C        2.73613        -2.28564        -0.83442
   C        4.01609        -1.73587        -1.08665
   C        4.68051        -1.09632        -0.07727
   C        4.09368        -0.99714         1.21655
   C        2.85783        -1.50659         1.48505
   C        5.03959        -0.31165         2.12191
   O        4.86614        -0.01021         3.28402
   C        6.27154        -0.11133         1.32508
   C        5.98249        -0.42948        -0.04448
   C        6.67399        -0.00348        -1.15796
   C        7.77767         0.86504        -1.11266
   N        8.65514         1.60714        -1.13653
   C        6.29829        -0.30040        -2.48067
   N        6.05284        -0.52067        -3.58151
   C        7.41871         0.30124         1.96843
   C        8.75317         0.20171         1.57699
   S        9.92565         1.26846         2.30283
   C       11.21075         0.72980         1.27821
   C       10.78166        -0.36515         0.48833
   C        9.39756        -0.66002         0.66001
   C        8.83670        -1.78018         0.02746
   C        9.62278        -2.54595        -0.79184
   F        9.09800        -3.62295        -1.39710
   C       10.98416        -2.24770        -0.97348
   F       11.73332        -3.04413        -1.75514
   C       11.56898        -1.19030        -0.32771
   C       12.43960         1.40797         1.32730
   C       13.35942         1.43294         0.31645
   C       14.60633         2.08197         0.30611
   S       15.51539         1.99607        -1.18959
   C       16.82733         2.93819        -0.53576
   C       16.55199         3.28179         0.79174
   C       15.30908         2.83278         1.25044
   S       14.68511         3.20408         2.86457
   C       14.45438         5.01362         2.69256
   C       13.35219         5.34263         1.70714
   S       17.70812         4.22967         1.73339
   C       18.13659         3.00658         3.03889
   C       19.01205         3.67006         4.08145
   C       17.97200         3.24205        -1.28134
   C       18.12010         2.90505        -2.60412
   C       19.24804         3.16577        -3.37962
   C       19.30153         2.84865        -4.72209
   C       20.39118         3.05566        -5.55353
   C       20.38663         2.76225        -6.90991
   C       21.44595         2.90195        -7.82367
   C       21.13218         2.53975        -9.10806
   C       19.80647         2.10735        -9.26555
   S       18.96657         2.15442        -7.73309
   C       19.15890         1.70362       -10.42839
   C       19.68838         1.59380       -11.72755
   C       18.77605         1.18566       -12.65876
   C       17.47768         0.95757       -12.14902
   S       17.47087         1.26956       -10.42091
   C       16.38433         0.57164       -12.89037
   C       15.06232         0.35946       -12.46414
   C       14.50338         0.45730       -11.17674
   C       13.12730         0.17240       -11.26059
   C       12.13752         0.14138       -10.29201
   C       10.83955        -0.16865       -10.70087
   C        9.64248        -0.27380        -9.99295
   C        8.59419        -0.61067       -10.89351
   C        9.13887        -0.71950       -12.16763
   C       10.53615        -0.45167       -12.09424
   C       11.51229        -0.42817       -13.05807
   C       12.82458        -0.11378       -12.65250
   C       14.00472        -0.00039       -13.36466
   C        7.22017        -0.79147       -10.48736
   C        6.20869        -1.08718       -11.29924
   H        2.45718        -3.05519        -2.83493
   H       -0.78874        -3.78292        -0.16255
   H        0.42598        -2.61702         1.66150
   H        4.44215        -1.84623        -2.07126
   H        2.42699        -1.41240         2.47061
   H        7.24252         0.73929         2.94697
   H        7.81716        -2.07637         0.20829
   H       12.63048        -1.04161        -0.42774
   H       12.61453         2.00463         2.21100
   H       13.10593         0.95729        -0.62075
   H       15.40900         5.44427         2.39367
   H       14.20446         5.34595         3.69932
   H       13.59957         4.97171         0.71390
   H       13.22466         6.42167         1.64927
   H       12.40968         4.89620         2.01707
   H       18.65580         2.18598         2.54246
   H       17.20514         2.64660         3.47301
   H       19.92516         4.05215         3.62973
   H       19.27738         2.94744         4.85017
   H       18.48484         4.49909         4.54831
   H       18.75571         3.78184        -0.76742
   H       17.29112         2.40157        -3.08862
   H       20.10288         3.63698        -2.91280
   H       18.41934         2.40386        -5.16822
   H       21.30257         3.46666        -5.13968
   H       22.41155         3.26296        -7.51606
   H       21.82167         2.58379        -9.93202
   H       20.71772         1.81454       -11.94544
   H       18.99879         1.04690       -13.70231
   H       16.56937         0.42728       -13.94857
   H       15.02297         0.70551       -10.27151
   H       12.35918         0.35260        -9.25577
   H        9.51958        -0.12492        -8.93503
   H        8.61038        -0.96378       -13.07003
   H       11.29363        -0.63896       -14.09563
   H       14.12822        -0.14881       -14.42268
   H        7.03640        -0.66784        -9.42765
   H        6.34380        -1.22046       -12.35907
   H        5.20651        -1.20939       -10.92722
*
