# ORCA input file
# SCF done       -203.803796849541          0.000886416162
! CAM-B3LYP def2-SVP def2/J RIJCOSX Grid4 TightSCF
%maxcore 5000
%tddft
    Mode sTDDFT
    Ethresh 5.0
    maxcore 5000
end

%pal
  nprocs 6
  end
* xyz 0 1
   C       -2.78544         1.94088        -1.52922
   C       -2.77799         0.58333        -1.28999
   C       -1.60943        -0.19838        -1.21629
   N       -0.70043        -0.89833        -1.14420
   C       -3.90665        -0.23197        -1.08133
   N       -4.75689        -0.98547        -0.89909
   C       -1.59175         2.76149        -1.73503
   C       -1.99553         4.10294        -1.93953
   C       -1.10289         5.12006        -2.16534
   C        0.25950         4.79948        -2.19105
   C        0.65365         3.45844        -1.98432
   C       -0.25163         2.42814        -1.75526
   S        2.38215         3.28216        -2.05615
   C        2.54643         4.99138        -2.35916
   C        1.37106         5.66077        -2.40497
  Br        4.25607         5.73073        -2.58907
   C       -3.47203         4.18160        -1.86866
   O       -4.14328         5.18826        -1.99733
   C       -3.92933         2.80564        -1.61761
   C       -5.25420         2.42598        -1.50139
   C       -6.35100         3.27270        -1.57457
   C       -7.64844         2.80219        -1.45583
   C       -8.84534         3.54942        -1.48882
   C       -9.97869         2.79946        -1.33618
   C       -9.72569         1.42384        -1.18076
   S       -8.00437         1.10795        -1.23172
   C      -10.60837         0.37162        -1.00556
   C      -12.01789         0.37390        -0.91381
   C      -12.55396        -0.86372        -0.72922
   C      -11.60583        -1.92309        -0.66764
   S       -9.99216        -1.24800        -0.85199
   C      -11.91559        -3.24824        -0.52411
   C      -11.05464        -4.38555        -0.49004
   C       -9.64999        -4.29027        -0.44422
   C       -8.88285        -5.42368        -0.48589
   C       -9.48679        -6.69708        -0.50423
   C      -10.87337        -6.81266        -0.51861
   C      -11.63840        -5.66870        -0.52001
   C       -8.44876        -7.69746        -0.45756
   C       -7.20311        -7.04543        -0.41810
   C       -7.37776        -5.54444        -0.49395
   C       -6.77777        -5.08266        -1.84460
   C       -6.94775        -3.60832        -2.18669
   C       -6.72387        -4.81613         0.68871
   C       -7.22129        -5.33100         2.03458
   C       -6.04068        -7.77276        -0.36251
   C       -6.08953        -9.17528        -0.33165
   C       -7.34017        -9.80819        -0.36814
   C       -8.51256        -9.08547        -0.43186
   C       -4.83918        -9.89830        -0.28332
   C       -4.67516       -11.22382        -0.13398
   C       -3.40085       -11.88887        -0.11735
   C       -3.18803       -13.20662         0.13468
   C       -4.06753       -14.38993         0.23410
   S       -3.06029       -15.77876        -0.44749
   C       -1.65381       -14.69953        -0.92565
   C       -1.72783       -13.52473         0.03672
   C       -1.12102       -12.20699        -0.37276
   C       -2.10759       -11.28245        -0.39744
   C        0.28900       -12.02512        -0.64109
   C        1.22799       -12.97286        -0.21036
   C        2.55907       -12.78928        -0.49536
   C        2.98994       -11.66608        -1.21915
   C        2.07149       -10.72093        -1.64973
   C        0.73535       -10.90741        -1.35731
   C        4.42788       -11.74405        -1.37830
   C        4.88426       -12.91395        -0.74923
   C        3.73119       -13.66965        -0.12914
   C        3.89191       -13.77785         1.39880
   C        4.03958       -12.42022         2.07511
   C        3.58787       -15.07814        -0.73383
   C        3.41423       -15.05532        -2.24755
   C        6.21905       -13.23861        -0.75085
   C        7.13606       -12.39341        -1.38809
   C        6.66510       -11.23239        -2.00973
   C        5.32436       -10.89836        -2.01176
   C        8.56425       -12.67449        -1.43102
   C        9.18977       -13.71843        -0.89835
   H       -1.44277         6.13231        -2.31904
   H        0.10149         1.42194        -1.60398
   H        1.28812         6.71765        -2.58216
   H       -5.46424         1.37543        -1.33831
   H       -6.19748         4.33093        -1.72525
   H       -8.83455         4.61672        -1.62081
   H      -10.97643         3.20111        -1.33352
   H      -12.59152         1.28038        -0.98663
   H      -13.60842        -1.05756        -0.63701
   H      -12.97600        -3.46638        -0.46331
   H       -9.17444        -3.33082        -0.34538
   H      -11.34273        -7.78498        -0.52768
   H      -12.71603        -5.74766        -0.54574
   H       -7.23563        -5.68528        -2.63469
   H       -5.71189        -5.31895        -1.82709
   H       -7.99732        -3.34246        -2.27409
   H       -6.47239        -3.41227        -3.14508
   H       -6.47739        -2.96557        -1.44946
   H       -6.93528        -3.74967         0.61175
   H       -5.64219        -4.94655         0.62575
   H       -8.29772        -5.19857         2.12266
   H       -6.74107        -4.78619         2.84389
   H       -6.99680        -6.38940         2.15164
   H       -5.08132        -7.27608        -0.33383
   H       -7.38953       -10.88606        -0.35602
   H       -9.46564        -9.59246        -0.46419
   H       -3.95890        -9.27523        -0.36981
   H       -5.53129       -11.87257        -0.00523
   H       -4.98240       -14.29427        -0.35122
   H       -4.32611       -14.65148         1.26265
   H       -1.79754       -14.37323        -1.95638
   H       -0.74217       -15.28689        -0.85129
   H       -1.34177       -13.82938         1.01650
   H       -1.98154       -10.23836        -0.61540
   H        0.90659       -13.83421         0.35582
   H        2.39201        -9.85462        -2.20899
   H        0.01223       -10.18610        -1.70530
   H        4.77150       -14.38792         1.61558
   H        3.01978       -14.29356         1.80725
   H        4.91597       -11.89772         1.69831
   H        4.14941       -12.54682         3.14983
   H        3.16515       -11.80064         1.88834
   H        2.72641       -15.57060        -0.27677
   H        4.47632       -15.66039        -0.48030
   H        2.52402       -14.49418        -2.52376
   H        3.31558       -16.06900        -2.62936
   H        4.27378       -14.58932        -2.72410
   H        6.56050       -14.13998        -0.26568
   H        7.37433       -10.57996        -2.49995
   H        4.98475        -9.99545        -2.49724
   H        9.15016       -11.93414        -1.96232
   H        8.67718       -14.49493        -0.35728
   H       10.25644       -13.83457        -0.98539
*
