# ORCA input file
# SCF done       -220.673625388045          0.000554961225
! CAM-B3LYP def2-SVP def2/J RIJCOSX Grid4 TightSCF
%maxcore 5000
%tddft
    Mode sTDDFT
    Ethresh 5.0
    maxcore 5000
end

%pal
  nprocs 6
  end
* xyz 0 1
   C       -0.00213         1.26319        -1.50638
   C       -0.83914         0.45775        -2.23176
   C       -0.54797        -0.88038        -2.57270
   N       -0.36727        -1.97265        -2.87555
   C       -2.08516         0.84863        -2.76779
   N       -3.09684         1.09267        -3.25308
   C        1.32409         0.89758        -1.03002
   C        1.93105         2.04070        -0.45622
   C        3.19632         2.01883         0.07917
   C        3.89833         0.81011         0.04485
   C        3.28196        -0.32980        -0.52623
   C        2.00238        -0.30773        -1.06548
   S        4.32298        -1.71933        -0.46005
   C        5.55576        -0.76345         0.31927
   C        5.20764         0.52963         0.52210
  Br        7.18486        -1.56259         0.79223
   C        1.00715         3.18996        -0.53259
   O        1.22320         4.30309        -0.10870
   C       -0.23726         2.65717        -1.15311
   C       -1.44660         3.27575        -1.19078
   C       -1.75561         4.65779        -0.94028
   C       -3.01413         4.96102        -0.38909
   C       -3.34549         6.26752        -0.13747
   C       -2.44715         7.30257        -0.45800
   C       -1.22169         7.01710        -1.04569
   C       -0.88276         5.70117        -1.28017
   C       -3.06253         8.56345        -0.11575
   C       -4.34556         8.31212         0.40936
   C       -4.59823         6.82484         0.50389
   C       -5.87354         6.39597        -0.23638
   C       -5.83213         6.74886        -1.71888
   C       -4.60299         6.34264         1.97547
   C       -5.67039         6.95489         2.87273
   C       -5.17590         9.35404         0.74034
   C       -4.71811        10.67768         0.61288
   C       -3.42128        10.90549         0.12054
   C       -2.59969         9.86603        -0.25707
   C       -5.51402        11.81749         0.97967
   C       -6.76464        11.78180         1.49599
   C       -7.52713        12.92287         1.88112
   C       -8.80911        12.73587         2.45578
   C       -9.60365        13.84106         2.93387
   N      -10.84724        13.61900         3.40789
   C      -11.28689        12.39676         3.50604
   C      -10.46131        11.28781         3.10484
   N       -9.28057        11.48525         2.57456
   C      -10.92999         9.95868         3.24746
   N      -11.31621         8.88735         3.37181
   C      -12.60431        12.15832         3.97620
   N      -13.66035        11.91059         4.34162
   C       -9.13176        15.15154         2.91867
   C       -7.90654        15.35878         2.28038
   C       -7.10825        14.26564         1.76411
   N       -5.98005        14.71286         1.20616
   S       -5.94422        16.31070         1.28894
   N       -7.32667        16.54637         2.05992
   C       -9.88767        16.28967         3.53620
   C      -11.00070        15.83278         4.48968
   O      -10.85935        15.45625         5.61503
   O      -12.19560        16.03936         3.91608
   C      -12.04493        16.42424         2.55420
   C      -10.66495        17.09286         2.48867
   C      -10.81079        18.56458         2.84851
   C      -11.55385        19.28218         1.72400
   C      -12.82449        18.54650         1.28289
   C      -13.21958        17.32473         2.13427
   O      -14.12114        16.59889         1.30638
   C      -13.96469        16.90846         0.00818
   O      -14.61356        16.41366        -0.86310
   C      -12.84927        17.94306        -0.14237
   C      -11.59266        17.24362        -0.56997
   C      -10.42934        17.84234        -1.00840
   C       -9.43677        16.82627        -1.19847
   C       -8.11296        16.89654        -1.55868
   C       -7.39561        15.69089        -1.63228
   C       -6.06601        15.42384        -1.95561
   C       -5.84806        14.01786        -1.90173
   C       -7.04321        13.41318        -1.54663
   C       -8.03508        14.42415        -1.35926
   C       -9.35731        14.35568        -0.99446
   C      -10.06892        15.56431        -0.90075
   C      -11.38635        15.83714        -0.53541
   C       -4.61357        13.31792        -2.16643
   C       -3.43646        13.88901        -2.40394
   H        3.63059         2.90798         0.50877
   H        1.57462        -1.20359        -1.48336
   H        5.84642         1.25676         0.98919
   H       -2.31344         2.65715        -1.39503
   H       -3.69542         4.15683        -0.15128
   H       -0.54330         7.81076        -1.31860
   H        0.05262         5.47176        -1.76210
   H       -6.73438         6.88364         0.22209
   H       -6.00061         5.31768        -0.12347
   H       -5.71355         7.82181        -1.85579
   H       -6.75625         6.44059        -2.20170
   H       -5.00331         6.24691        -2.21318
   H       -3.62010         6.55948         2.40272
   H       -4.72512         5.25741         1.96562
   H       -5.51167         8.02298         2.99466
   H       -5.61716         6.49376         3.85647
   H       -6.66876         6.78608         2.47858
   H       -6.17744         9.16442         1.09016
   H       -3.07610        11.92497         0.02930
   H       -1.61442        10.05882        -0.65373
   H       -5.05177        12.78362         0.83134
   H       -7.27088        10.84284         1.66878
   H       -9.17305        16.91453         4.07838
   H      -12.06922        15.50819         1.94934
   H      -10.20385        16.99972         1.50725
   H       -9.82678        19.01650         2.97900
   H      -11.35681        18.65669         3.78991
   H      -10.87998        19.37543         0.87273
   H      -11.81125        20.28965         2.05186
   H      -13.67055        19.24092         1.32964
   H      -13.76878        17.59965         3.03930
   H      -13.12078        18.69271        -0.88896
   H      -10.27542        18.88775        -1.20447
   H       -7.63209        17.83991        -1.77718
   H       -5.32706        16.16076        -2.21286
   H       -7.20717        12.35788        -1.42842
   H       -9.84150        13.41193        -0.78434
   H      -12.13674        15.10308        -0.30261
   H       -4.69308        12.23794        -2.15346
   H       -3.30735        14.95766        -2.42024
   H       -2.55495        13.30137        -2.59346
*
