# ORCA input file
# SCF done       -184.916280956308          0.000431146133
! CAM-B3LYP def2-SVP def2/J RIJCOSX Grid4 TightSCF
%maxcore 5000
%tddft
    Mode sTDDFT
    Ethresh 5.0
    maxcore 5000
end

%pal
  nprocs 6
  end
* xyz 0 1
   C      -15.08812         3.08517        -3.88890
   C      -15.67167         2.43289        -2.83172
   C      -17.04501         2.13064        -2.74751
   N      -18.15400         1.85933        -2.62508
   C      -14.96822         1.98789        -1.69510
   N      -14.43480         1.61065        -0.75063
   C      -15.78229         3.56853        -5.08182
   C      -14.83975         4.19543        -5.93827
   C      -15.18277         4.75252        -7.14658
   C      -16.52710         4.69065        -7.52908
   C      -17.46207         4.06667        -6.67025
   C      -17.11158         3.50087        -5.44813
   S      -19.06452         4.10525        -7.33791
   C      -18.46428         4.94760        -8.74284
   C      -17.13206         5.18819        -8.71529
  Br      -19.65499         5.42867       -10.10943
   C      -13.52131         4.12767        -5.30722
   O      -12.46211         4.57080        -5.75347
   C      -13.69436         3.42970        -4.03801
   C      -12.63095         3.18487        -3.19451
   N      -11.40241         3.60115        -3.52398
   C      -10.25859         3.44216        -2.81619
   S      -10.30462         2.63567        -1.27065
   C       -8.59884         2.89250        -1.10574
   N       -7.96511         2.42671         0.05456
   O       -6.77074         2.63556         0.16593
   O       -8.65982         1.84782         0.86986
   C       -8.04183         3.54717        -2.16632
   C       -8.97019         3.87900        -3.18207
   C       -8.51254         4.55695        -4.35282
   C       -9.18622         4.93024        -5.47565
   C       -8.60024         5.58729        -6.57060
   S       -6.90938         5.99756        -6.64486
   C       -7.04109         6.68169        -8.24207
   C       -8.38264         6.60359        -8.69639
   C       -9.25541         5.99262        -7.75303
   C      -10.62233         5.85600        -8.05151
   C      -11.08386         6.31702        -9.25285
   F      -12.39329         6.19863        -9.54844
   C      -10.22087         6.91781       -10.18810
   F      -10.71934         7.35773       -11.35786
   C       -8.88550         7.06349        -9.92107
   C       -5.94901         7.19858        -8.92638
   C       -4.66502         7.29531        -8.42334
   C       -3.59742         7.77633        -9.16037
   C       -2.29973         7.92177        -8.68898
   C       -1.18650         8.35860        -9.42642
   C       -0.02257         8.41512        -8.70531
   C       -0.17083         8.03614        -7.36262
   S       -1.82952         7.58483        -7.03809
   C        0.80811         8.02081        -6.37348
   C        2.17196         8.33649        -6.51768
   C        2.88082         8.25383        -5.35340
   C        2.11611         7.87686        -4.22704
   S        0.45099         7.60836        -4.71814
   C        2.60053         7.76798        -2.94340
   C        1.91512         7.44285        -1.76200
   C        0.56650         7.09543        -1.56384
   C        0.35358         6.88877        -0.18727
   C       -0.78328         6.54236         0.52421
   C       -0.67286         6.43403         1.91180
   C       -1.60939         6.12309         2.89682
   C       -0.97908         6.16499         4.17189
   C        0.35705         6.49549         3.98203
   C        0.59202         6.67261         2.58819
   C        1.72486         7.00415         1.88994
   C        1.61946         7.11774         0.48934
   C        2.55287         7.44385        -0.47624
   C       -1.66834         5.90414         5.41382
   C       -1.12673         5.97922         6.62654
   H      -14.44567         5.22043        -7.78049
   H      -17.86236         3.03611        -4.83123
   H      -16.59387         5.69451        -9.49570
   H      -12.74613         2.65671        -2.25742
   H      -11.36702         4.10432        -4.42271
   H       -6.99265         3.77799        -2.21299
   H       -7.45540         4.79234        -4.32451
   H      -10.23509         4.72975        -5.60845
   H      -11.31356         5.40797        -7.35763
   H       -8.24853         7.53163       -10.65319
   H       -6.12658         7.55068        -9.93351
   H       -4.48320         6.97829        -7.40362
   H       -3.76812         8.06152       -10.19082
   H       -1.26620         8.61787       -10.46737
   H        0.92213         8.72745        -9.11230
   H        2.59796         8.61399        -7.46469
   H        3.93349         8.46055        -5.27067
   H        3.65660         7.98491        -2.83050
   H       -0.18475         6.99830        -2.32393
   H       -1.72585         6.36598         0.02631
   H       -2.64552         5.88807         2.73044
   H        1.10407         6.60380         4.74585
   H        2.66952         7.17982         2.38540
   H        3.59040         7.67288        -0.31008
   H       -2.71126         5.63239         5.30988
   H       -0.09551         6.24910         6.77787
   H       -1.70060         5.77344         7.51324
*
