# ORCA input file
# SCF done       -200.356536028614          0.000430832356
! CAM-B3LYP def2-SVP def2/J RIJCOSX Grid4 TightSCF
%maxcore 5000
%tddft
    Mode sTDDFT
    Ethresh 5.0
    maxcore 5000
end

%pal
  nprocs 6
  end
* xyz 0 1
   C        1.97625        -2.01877         3.25638
   O        1.80035        -3.02290         3.90808
   C        2.73802        -0.82750         3.69643
   C        2.69151         0.16647         2.70510
   C        3.34085         1.37523         2.91895
   C        4.02332         1.56535         4.11021
   C        4.05711         0.56634         5.07517
   C        3.41181        -0.64787         4.88685
  Br        5.00788         0.87359         6.69091
   C        1.90896        -0.33141         1.57875
   C        1.72186         0.32949         0.39375
   C        2.22556         1.61945         0.12012
   N        2.59924         2.66724        -0.16246
   C        1.02531        -0.16782        -0.72897
   N        0.48967        -0.49296        -1.69154
   C        1.43278        -1.66496         1.91962
   C        0.49894        -2.35470         1.20665
   C        0.00687        -3.69006         1.38155
   C       -1.29586        -3.96016         0.91503
   C       -1.83565        -5.20976         1.07791
   C       -1.05053        -6.24479         1.62424
   C        0.25732        -6.00705         2.02966
   C        0.77322        -4.73413         1.92130
   C       -1.82727        -7.45920         1.62765
   C       -3.09770        -7.18481         1.08681
   C       -3.20248        -5.72885         0.67612
   C       -4.34779        -5.08692         1.48679
   C       -4.57442        -3.59656         1.26859
   C       -3.33984        -5.55492        -0.85177
   C       -4.62661        -6.08196        -1.47306
   C       -4.05195        -8.17068         1.05202
   C       -3.75216        -9.46566         1.51623
   C       -2.46360        -9.72556         2.01338
   C       -1.50968        -8.73528         2.07943
   C       -4.78927       -10.45586         1.48053
   C       -4.72027       -11.73105         1.94587
   C       -5.80971       -12.62117         1.91284
   C       -5.78735       -13.89293         2.42157
   C       -6.86245       -14.81604         2.46669
   C       -6.56513       -15.99713         3.07167
   C       -5.23025       -16.08396         3.53353
   S       -4.36377       -14.60951         3.16626
   C       -4.63510       -17.13668         4.19617
   C       -5.22174       -18.35338         4.61210
   C       -4.37739       -19.18739         5.27641
   C       -3.05844       -18.68371         5.41671
   S       -2.94682       -17.08969         4.66808
   C       -2.00222       -19.29368         6.02543
   N       -0.76068       -18.73905         6.07054
   C        0.32777       -19.24696         6.67532
   S        0.23730       -20.71840         7.59084
   C        1.93774       -20.58405         7.93966
   N        2.49745       -21.58186         8.74079
   O        3.67880       -21.49543         9.02042
   O        1.74143       -22.46807         9.10881
   C        2.52843       -19.48813         7.37977
   C        1.62680       -18.69009         6.64444
   C        1.95980       -17.50059         5.93745
   C        3.21860       -17.01729         5.76506
   C        3.47787       -15.84658         5.02276
   C        4.69279       -15.37773         4.60970
   C        4.83611       -13.96256         4.19089
   O        3.94662       -13.17733         3.95289
   C        6.29572       -13.71095         4.17811
   C        6.98033       -14.90806         4.45866
   C        6.00246       -15.98826         4.59049
   C        6.28540       -17.32536         4.47365
   C        7.59446       -17.84478         4.39784
   N        8.63952       -18.31693         4.34971
   C        5.31020       -18.32803         4.29059
   N        4.55968       -19.17159         4.08273
   C        8.36487       -14.90673         4.53411
   C        9.04367       -13.71657         4.31838
   C        8.34954       -12.55013         4.02614
   C        6.96295       -12.52488         3.95372
  Br        9.32307       -10.94629         3.72413
   H        3.32374         2.16607         2.18746
   H        4.53332         2.49884         4.29215
   H        3.43148        -1.42762         5.63244
   H        0.01274        -1.81480         0.40161
   H       -1.85450        -3.16278         0.44852
   H        0.86407        -6.80897         2.42101
   H        1.79071        -4.54778         2.21925
   H       -4.13666        -5.25950         2.54581
   H       -5.26811        -5.62325         1.25002
   H       -3.73277        -3.01536         1.63408
   H       -5.45882        -3.28449         1.82049
   H       -4.73529        -3.36700         0.21875
   H       -2.49092        -6.06367        -1.31668
   H       -3.24356        -4.49267        -1.08117
   H       -4.69520        -7.16138        -1.37217
   H       -4.63400        -5.84439        -2.53478
   H       -5.50325        -5.62589        -1.02079
   H       -5.04909        -7.97066         0.68910
   H       -2.21697       -10.71613         2.36132
   H       -0.53121        -8.94472         2.48428
   H       -5.73046       -10.12973         1.05304
   H       -3.80703       -12.10652         2.38693
   H       -6.73926       -12.27849         1.47675
   H       -7.82505       -14.56900         2.05479
   H       -7.26201       -16.80607         3.19708
   H       -6.25507       -18.57439         4.41523
   H       -4.65107       -20.14952         5.66966
   H       -2.12022       -20.25862         6.49388
   H       -0.65241       -17.85550         5.58256
   H        3.57487       -19.28238         7.50564
   H        1.15127       -16.96227         5.45788
   H        4.05472       -17.53693         6.20560
   H        2.63631       -15.19803         4.80146
   H        8.92025       -15.80128         4.76444
   H       10.12109       -13.69594         4.37623
   H        6.42090       -11.61907         3.73077
*
