# ORCA input file
# SCF done       -139.979045564584          0.000712758595
! CAM-B3LYP def2-SVP def2/J RIJCOSX Grid4 TightSCF
%maxcore 5000
%tddft
    Mode sTDDFT
    Ethresh 5.0
    maxcore 5000
end

%pal
  nprocs 6
  end
* xyz 0 1
   C       13.31147        -6.58157         0.65215
   C       12.18592        -5.88949         0.43702
   C       12.06264        -4.52919        -0.00773
   C       10.79247        -4.08673        -0.10639
   C        9.80415        -5.04605         0.26445
   S       10.56918        -6.56848         0.68829
   C        8.45862        -4.83612         0.39316
   C        7.77454        -3.59174         0.29693
   C        6.49670        -3.63835         0.72919
   C        6.05669        -4.92969         1.17035
   S        7.34938        -6.09416         0.91883
   C        4.81273        -5.15795         1.65836
   C        4.14167        -6.36005         2.07805
   C        2.78802        -6.45372         1.85292
   S        2.11024        -7.95645         2.31266
   C        3.62970        -8.49649         2.85475
   C        4.62390        -7.56505         2.69743
   C        5.93418        -7.90680         3.25956
   O        6.27997        -9.03997         3.49714
   O        6.70272        -6.82953         3.55568
   C        7.94571        -7.08786         4.04485
   C        8.91730        -6.15754         4.08620
   C       10.28653        -6.39600         4.42859
   C       11.10512        -5.35448         4.16359
   C       10.44254        -4.21764         3.61992
   S        8.70916        -4.48566         3.57223
   C       11.01554        -3.09082         3.09362
   C       12.39483        -2.77082         2.99242
   C       12.64782        -1.62962         2.30965
   C       11.48962        -0.95768         1.81243
   S       10.05280        -1.84497         2.31899
   C       11.52220         0.16355         1.04489
   C       10.43400         0.87271         0.45132
   C        9.09667         0.58444         0.58061
   S        8.08837         1.65047        -0.30734
   C        9.44042         2.51632        -0.88319
   C       10.62399         2.01528        -0.41294
   C       11.91541         2.60391        -0.76774
   O       13.00586         2.27261        -0.36239
   O       11.74808         3.62172        -1.65212
   C       12.84737         4.30194        -2.07498
   C       12.73736         5.28498        -2.99003
   C       13.79641         6.08430        -3.52239
   C       13.39142         6.99120        -4.43885
   C       11.99130         6.97894        -4.70108
   S       11.20059         5.75665        -3.71449
   C       11.30149         7.76872        -5.58086
   C       11.83008         8.78427        -6.43194
   C       10.91055         9.40043        -7.20281
   C        9.56728         8.92221        -7.02545
   S        9.56589         7.63618        -5.80726
   C        8.46145         9.34289        -7.65183
   H       14.27370        -6.12896         0.48926
   H       13.29181        -7.60177         0.98870
   H       12.93694        -3.94196        -0.22660
   H       10.51835        -3.09650        -0.42448
   H        8.26886        -2.70200        -0.04860
   H        5.83580        -2.79054         0.77108
   H        4.15608        -4.29495         1.63602
   H        2.16117        -5.71072         1.40036
   H        3.74232        -9.46571         3.29899
   H        8.13409        -8.11572         4.33078
   H       10.60233        -7.35129         4.80638
   H       12.17059        -5.36677         4.30716
   H       13.15119        -3.40587         3.41755
   H       13.63041        -1.23521         2.11965
   H       12.50089         0.56986         0.83294
   H        8.63883        -0.18856         1.16251
   H        9.30361         3.35340        -1.53858
   H       13.79433         4.00799        -1.64072
   H       14.81144         5.94442        -3.19686
   H       14.05014         7.67478        -4.94386
   H       12.88018         9.01730        -6.43806
   H       11.12215        10.18755        -7.90480
   H        8.51155        10.12801        -8.38554
   H        7.49706         8.91637        -7.44578
*
