# ORCA input file
# SCF done       -161.897142223581          0.000746880005
! CAM-B3LYP def2-SVP def2/J RIJCOSX Grid4 TightSCF
%maxcore 5000
%tddft
    Mode sTDDFT
    Ethresh 5.0
    maxcore 5000
end

%pal
  nprocs 6
  end
* xyz 0 1
   C        5.23912        -2.55929         8.50012
   C        5.77812        -2.32985         7.29559
   C        6.61506        -1.23184         6.90321
   C        7.00573        -1.26059         5.61064
   C        6.51777        -2.37576         4.87285
   S        5.53351        -3.39840         5.90433
   C        6.74151        -2.66270         3.54961
   C        7.49172        -1.91008         2.60971
   C        7.51511        -2.44826         1.36483
   C        6.78961        -3.66388         1.23380
   S        6.07530        -4.09475         2.78125
   C        6.65234        -4.38846         0.08400
   C        5.95295        -5.59623        -0.09122
   S        5.13848        -6.45476         1.18095
   C        4.63791        -7.71825         0.10793
   C        5.06888        -7.46656        -1.19775
   C        5.81946        -6.26885        -1.30877
   O        6.40033        -5.71500        -2.39691
   C        6.34234        -6.38038        -3.63746
   C        4.69686        -8.27812        -2.28193
   N        4.36883        -8.92096        -3.17671
   C        3.89531        -8.83746         0.62916
   C        3.20868        -8.69629         1.84789
   C        2.51133        -9.75948         2.36036
   C        2.48198       -10.98981         1.67917
   C        3.16901       -11.14496         0.48444
   C        3.87137       -10.07440        -0.02960
   C        1.67825       -11.91804         2.44036
   C        1.20861       -11.26673         3.59432
   C        1.70403        -9.83863         3.63552
   C        0.53510        -8.83649         3.62222
   C       -0.39166        -9.02494         2.42733
   C        2.58686        -9.58276         4.87124
   C        3.77148       -10.53717         4.95973
   C        0.41127       -11.93224         4.49204
   C        0.06560       -13.27573         4.26362
   C        0.54192       -13.90502         3.10355
   C        1.33955       -13.24134         2.19613
   C       -0.77222       -13.94656         5.22733
   C       -1.06993       -15.26373         5.22163
   C       -1.89893       -15.94986         6.14897
   S       -2.07243       -17.67346         5.95971
   C       -3.13896       -17.79248         7.31803
   C       -3.34632       -16.52172         7.89263
   C       -2.64733       -15.48643         7.23209
   O       -2.63816       -14.16783         7.52817
   C       -3.44317       -13.70005         8.58644
   C       -4.17999       -16.41111         9.01269
   N       -4.87317       -16.39049         9.93017
   C       -3.70364       -18.99216         7.76675
   C       -3.51924       -20.24331         7.23236
   C       -4.10543       -21.44194         7.71611
   C       -3.76503       -22.55629         7.01702
   C       -2.88700       -22.30743         5.93366
   S       -2.51321       -20.59346         5.84164
   C       -2.35917       -23.21094         5.04255
   C       -2.57386       -24.61773         5.00648
   C       -1.91752       -25.25631         4.01318
   C       -1.12631       -24.39828         3.17778
   S       -1.28053       -22.72885         3.74970
   C       -0.37374       -24.74478         2.12494
   H        5.41332        -1.88221         9.31763
   H        4.62182        -3.41817         8.68878
   H        6.88429        -0.46842         7.61164
   H        7.63346        -0.51800         5.15028
   H        7.98515        -0.99450         2.88241
   H        8.02892        -2.01784         0.52316
   H        7.12813        -4.00627        -0.80929
   H        6.93739        -5.77335        -4.31823
   H        5.31746        -6.44724        -4.01081
   H        6.76979        -7.38472        -3.57742
   H        3.23222        -7.74504         2.36023
   H        3.16455       -12.08971        -0.03747
   H        4.42666       -10.20114        -0.94424
   H        0.94388        -7.82396         3.60916
   H       -0.03610        -8.95457         4.54552
   H        0.15154        -8.89077         1.49451
   H       -1.20015        -8.29827         2.46257
   H       -0.82476       -10.02279         2.43082
   H        1.97103        -9.68602         5.76724
   H        2.95264        -8.55455         4.83247
   H        3.43088       -11.56864         5.01937
   H        4.36285       -10.31715         5.84552
   H        4.41119       -10.43686         4.08577
   H        0.04587       -11.43826         5.38143
   H        0.27167       -14.93013         2.90440
   H        1.69158       -13.74407         1.30761
   H       -1.17450       -13.32809         6.01604
   H       -0.65237       -15.90871         4.46015
   H       -3.29865       -12.62082         8.60719
   H       -3.13589       -14.12701         9.54493
   H       -4.50015       -13.92208         8.41608
   H       -4.35381       -18.91809         8.62958
   H       -4.76035       -21.43273         8.56953
   H       -4.11750       -23.54555         7.24734
   H       -3.21051       -25.10414         5.72412
   H       -1.95719       -26.31531         3.82936
   H       -0.30736       -25.77175         1.81157
   H        0.18314       -24.01661         1.56433
*
