# ORCA input file
# SCF done       -199.255914701828          0.000789029427
! CAM-B3LYP def2-SVP def2/J RIJCOSX Grid4 TightSCF
%maxcore 5000
%tddft
    Mode sTDDFT
    Ethresh 5.0
    maxcore 5000
end

%pal
  nprocs 6
  end
* xyz 0 1
   C        5.54374       -11.71264        10.39506
   C        6.64806       -12.37577         9.88906
   C        7.02722       -11.82613         8.62119
   N        8.07868       -12.31571         7.92040
   C        8.78238       -13.31135         8.40918
   C        8.48180       -13.89090         9.65034
   C        7.41623       -13.44555        10.39245
   C        6.22195       -10.76734         8.21215
   S        5.00254       -10.45305         9.38229
   C        6.55369       -10.02651         7.03288
   C        6.08662        -8.77559         6.64447
   C        5.01297        -7.95321         7.21006
   O        4.30297        -8.18490         8.16301
   N        4.94705        -6.80386         6.42140
   C        5.91851        -6.80719         5.40692
   O        6.09579        -5.93497         4.60019
   C        6.65221        -8.08830         5.56216
   C        7.74007        -8.57429         4.86706
   C        8.20932        -9.83832         5.24512
   C        7.58539       -10.56126         6.24233
   C        7.99917       -11.99914         6.35930
   O        7.34438       -12.88495         5.81400
   S        9.87349       -11.85610         5.71622
   C        9.46141       -10.45350         4.72941
   O       10.14497       -10.02397         3.84292
   C        3.97637        -5.83478         6.66710
   C        3.77771        -4.73393         5.93510
   C        2.73531        -3.75691         6.17400
   C        2.00594        -3.69670         7.34083
   C        0.97706        -2.74632         7.47764
   C        0.09474        -2.50542         8.52789
   C        0.08566        -3.18446         9.85282
   C        0.25520        -2.16946        11.00351
   N        0.86629        -2.83039        12.14182
   C       -1.17564        -4.04969        10.02661
   N       -1.12602        -5.14873         9.08058
   C       -0.79347        -1.45229         8.09221
   C       -1.86477        -0.88001         8.67564
   C       -2.62831         0.21215         8.00938
   C       -2.11112         0.61516         6.66696
   C       -1.05966         0.00892         6.08131
   C       -0.38053        -1.03892         6.74333
   C        0.69248        -1.83747         6.38008
   C        1.47683        -1.89689         5.20895
   C        2.46681        -2.82487         5.12123
   C       -2.62164         1.37475         8.96836
   C       -3.71534         1.93386         9.47121
   C       -3.67017         2.98949        10.47380
   C       -2.89527         2.87665        11.62951
   C       -2.09189         1.74636        12.12814
   O       -1.90003         0.64959        11.65624
   N       -1.56879         2.16099        13.36056
   C       -1.98452         3.44958        13.70963
   O       -1.68351         4.04425        14.71398
   C       -2.85720         3.89066        12.60088
   C       -3.58135         5.05994        12.47335
   C       -4.37264         5.17546        11.33519
   C       -4.42376         4.16886        10.36272
   C       -5.30532         4.46519         9.22903
   O       -5.52061         3.79252         8.26059
   S       -6.07060         6.07201         9.49237
   C       -5.21906         6.34330        11.05586
   O       -5.35825         7.32863        11.71803
   C       -0.75231         1.30998        14.09398
   C       -0.22995         1.57295        15.30050
   C        0.60051         0.66395        16.01432
   C        1.16207         0.84582        17.27547
   C        1.94833        -0.28454        17.70098
   N        2.58612        -0.33534        18.89263
   C        2.46565         0.69753        19.66870
   C        1.71953         1.86140        19.35356
   C        1.06523         1.94282        18.15847
   C        1.96887        -1.29207        16.76123
   S        1.05244        -0.88939        15.38266
   H        5.04126       -11.91357        11.32023
   H        9.59533       -13.66601         7.79260
   H        9.09862       -14.70171        10.00200
   H        7.16032       -13.89767        11.33817
   H        8.21974        -8.01658         4.07864
   H        3.36781        -6.09599         7.52241
   H        4.40343        -4.55345         5.07373
   H        2.20811        -4.37350         8.15542
   H        0.94243        -3.86138         9.90295
   H       -0.70979        -1.69445        11.23327
   H        0.94242        -1.38417        10.67594
   H        0.23010        -3.50486        12.55186
   H        1.11611        -2.16009        12.85933
   H       -2.07257        -3.41729         9.91886
   H       -1.18297        -4.48372        11.03010
   H       -1.12207        -4.79414         8.12969
   H       -1.92763        -5.75887         9.19015
   H       -2.19880        -1.14246         9.66778
   H       -3.67310        -0.11250         7.89316
   H       -2.63863         1.42327         6.18420
   H       -0.72276         0.31510         5.10161
   H        1.28276        -1.21169         4.39715
   H        3.07295        -2.88539         4.22921
   H       -1.63872         1.72597         9.24787
   H       -4.70007         1.63934         9.13451
   H       -3.55133         5.83985        13.21727
   H       -0.57288         0.37326        13.58143
   H       -0.43309         2.51653        15.78340
   H        2.98369         0.63516        20.61723
   H        1.67917         2.67001        20.06636
   H        0.48827         2.81477        17.88740
   H        2.47436        -2.23384        16.82126
*
