# ORCA input file
# SCF done       -260.651502902211          0.000460099373
! CAM-B3LYP def2-SVP def2/J RIJCOSX Grid4 TightSCF
%maxcore 5000
%tddft
    Mode sTDDFT
    Ethresh 5.0
    maxcore 5000
end

%pal
  nprocs 6
  end
* xyz 0 1
   C        2.92792         5.96678         7.15886
   C        1.58167         6.04864         6.88330
   C        0.70108         6.76334         7.70623
   C        1.24094         7.44051         8.82458
   C        2.60444         7.32668         9.10259
   C        3.44114         6.59858         8.28492
   N        0.44725         8.20658         9.68618
   C       -0.36522         9.23319         9.17820
   C       -1.58559         9.52841         9.78606
   C       -2.37736        10.54618         9.29020
   C       -1.97068        11.27509         8.18436
   C       -0.76602        10.97456         7.57057
   C        0.03723         9.96407         8.06262
   C        0.63685         8.08309        11.06690
   C        0.57380         9.19360        11.90794
   C        0.75279         9.04468        13.26955
   C        1.00650         7.79623        13.81342
   C        1.07729         6.69095        12.98117
   C        0.89023         6.82719        11.61975
   C       -0.71759         6.77638         7.44693
   C       -1.38095         5.94823         6.61784
   C       -2.81101         5.97707         6.46686
   C       -3.53699         4.78864         6.29406
   C       -3.04483         3.41210         6.10683
   O       -1.91552         2.99230         6.04769
   N       -4.18840         2.60478         5.98441
   C       -5.36753         3.34329         6.09199
   O       -6.48963         2.91098         6.03515
   C       -4.93337         4.74841         6.28490
   C       -5.70025         5.88625         6.44511
   C       -4.99956         7.08507         6.52956
   C       -3.60364         7.14976         6.50420
   C       -3.08796         8.51766         6.34633
   O       -1.99209         8.88546         6.04336
   S       -4.45516         9.68646         6.53207
   C       -5.68455         8.38800         6.61912
   O       -6.85763         8.58723         6.72919
   C       -4.05720         1.24116         5.73565
   C       -5.06729         0.38008         5.57393
   C       -4.92393        -1.02836         5.26871
   C       -3.71424        -1.68768         5.26698
   C       -3.64964        -3.04623         4.90664
   C       -2.56399        -3.91108         4.79837
   C       -1.14702        -3.59829         5.11994
   C       -0.56915        -4.55874         6.17935
   N        0.76234        -4.11800         6.55969
   C       -0.26296        -3.58907         3.85807
   N       -0.61819        -2.45981         3.01638
   C       -3.08416        -5.17313         4.32202
   C       -2.47514        -6.32001         3.96563
   C       -3.25108        -7.50319         3.49239
   C       -4.73055        -7.32009         3.47219
   C       -5.32122        -6.15043         3.78626
   C       -4.54158        -5.04534         4.19707
   C       -4.87116        -3.74450         4.54455
   C       -6.10238        -3.05806         4.58620
   C       -6.11823        -1.74488         4.93951
   C       -2.78808        -8.65916         4.34485
   C       -3.50151        -9.18764         5.33009
   C       -3.02568       -10.28553         6.16175
   C       -3.82291       -11.41283         6.35135
   C       -5.17471       -11.69191         5.82077
   O       -5.86961       -10.98314         5.13188
   N       -5.49968       -12.96921         6.27651
   C       -4.47415       -13.53777         7.04596
   O       -4.51411       -14.63616         7.53821
   C       -3.40158       -12.52415         7.09317
   C       -2.16633       -12.55827         7.70888
   C       -1.37487       -11.42315         7.56656
   C       -1.77859       -10.30760         6.81485
   C       -0.82861        -9.19000         6.85897
   O       -0.90911        -8.09837         6.36580
   S        0.59755        -9.66806         7.84977
   C       -0.06085       -11.30180         8.20820
   O        0.51599       -12.11351         8.87018
   C       -6.66940       -13.68862         6.02761
   C       -7.75612       -13.21621         5.41264
   C       -8.96079       -13.98323         5.16123
   C       -9.00007       -15.37623         5.21034
   C      -10.16261       -16.09151         4.96103
   C      -11.34669       -15.38504         4.67447
   C      -11.30936       -13.99209         4.60525
   C      -10.13846       -13.30496         4.83074
   N      -12.55636       -16.05765         4.47041
   C      -12.93782       -17.09348         5.33011
   C      -12.55541       -17.07657         6.67106
   C      -12.91909       -18.11127         7.51031
   C      -13.67436       -19.16983         7.03405
   C      -14.06362       -19.18731         5.70444
   C      -13.69832       -18.16230         4.85481
   C      -13.43416       -15.59854         3.48174
   C      -12.93173       -15.14726         2.26092
   C      -13.79110       -14.69019         1.28128
   C      -15.15964       -14.68145         1.49687
   C      -15.66348       -15.12939         2.70714
   C      -14.81201       -15.58116         3.69652
   C      -10.13940       -17.55469         4.93470
   C       -9.38815       -18.31304         5.71977
   H        3.58202         5.41145         6.50418
   H        1.19078         5.55498         6.00801
   H        2.99981         7.83749         9.96883
   H        4.49490         6.53729         8.51145
   H       -1.90530         8.95236        10.64305
   H       -3.32303        10.76460         9.76430
   H       -2.59563        12.06527         7.79816
   H       -0.44661        11.53279         6.70438
   H        0.97703         9.73005         7.58485
   H        0.39165        10.17169        11.48774
   H        0.70365         9.91352        13.90924
   H        1.14916         7.68569        14.87750
   H        1.27194         5.71288        13.39597
   H        0.93700         5.96296        10.97293
   H       -1.29853         7.47778         8.02748
   H       -0.88063         5.13437         6.11501
   H       -6.77753         5.86226         6.46935
   H       -3.01608         0.95630         5.66817
   H       -6.08139         0.74527         5.64034
   H       -2.80645        -1.16798         5.52865
   H       -1.10547        -2.58864         5.54354
   H       -0.48221        -5.56741         5.77666
   H       -1.27383        -4.59984         7.02596
   H        0.71361        -3.26204         7.10302
   H        1.21736        -4.82277         7.12769
   H       -0.43226        -4.49747         3.27740
   H        0.78408        -3.57964         4.19718
   H       -0.38336        -1.58775         3.47881
   H       -0.10907        -2.49320         2.14108
   H       -1.40559        -6.45098         4.02668
   H       -2.92495        -7.71987         2.46153
   H       -5.30974        -8.18005         3.17241
   H       -6.39502        -6.04423         3.73450
   H       -7.01522        -3.57609         4.33184
   H       -7.05284        -1.20384         4.96766
   H       -1.78862        -9.01422         4.13603
   H       -4.52111        -8.87393         5.50471
   H       -1.82643       -13.40698         8.28042
   H       -6.60055       -14.69455         6.41833
   H       -7.77746       -12.18740         5.08562
   H       -8.09282       -15.92908         5.39589
   H      -12.21866       -13.45479         4.37770
   H      -10.13244       -12.22649         4.77443
   H      -11.97654       -16.24690         7.04918
   H      -12.61659       -18.08572         8.54665
   H      -13.95856       -19.97546         7.69363
   H      -14.64942       -20.01065         5.32294
   H      -13.99139       -18.18581         3.81514
   H      -11.86520       -15.16070         2.08924
   H      -13.38953       -14.34551         0.33980
   H      -15.82876       -14.32679         0.72785
   H      -16.72840       -15.11833         2.88690
   H      -15.20716       -15.91650         4.64419
   H      -10.78999       -18.01886         4.20440
   H       -8.75480       -17.89424         6.48369
   H       -9.39638       -19.38630         5.64214
*
