# ORCA input file
# SCF done       -249.987606580047          0.000240958795
! CAM-B3LYP def2-SVP def2/J RIJCOSX Grid4 TightSCF
%maxcore 5000
%tddft
    Mode sTDDFT
    Ethresh 5.0
    maxcore 5000
end

%pal
  nprocs 6
  end
* xyz 0 1
   C        1.18365         4.19452         4.95435
   C        1.46209         5.53003         4.91050
   C        1.71994         6.30369         6.06243
   N        1.90744         6.99613         6.95863
   C        1.46922         6.34663         3.76082
   N        1.48369         7.10806         2.90183
   C        1.07338         3.40018         6.17003
   C        0.34729         2.20713         5.88486
   C        0.08994         1.27552         6.85048
   C        0.56749         1.49282         8.16167
   C        1.31660         2.67160         8.44618
   C        1.55931         3.62256         7.43024
   C        1.80421         2.86522         9.75493
   C        1.56079         1.94525        10.73747
   C        0.81872         0.78765        10.45747
   C        0.33306         0.56658         9.19770
   C        0.01117         2.17256         4.45416
   O       -0.65521         1.36321         3.85260
   C        0.73321         3.34188         3.85851
   C        0.98194         3.36039         2.53986
   C        1.86189         4.25368         1.79933
   C        3.22465         4.42041         2.10060
   C        3.90488         3.59927         3.12821
   O        3.41899         3.29174         4.20283
   C        5.24588         3.11042         2.76213
   C        5.69824         2.88744         1.48971
   S        7.25086         2.17023         1.46332
   C        7.30529         2.14032         3.18254
   C        6.18836         2.66881         3.74722
   C        5.98044         2.74965         5.22020
   O        6.15173         1.77904         5.92529
   C        5.60756         4.07517         5.76357
   C        5.10886         4.13482         7.06441
   C        4.78254         5.35130         7.63035
   C        4.94038         6.52059         6.90332
   C        5.43437         6.46921         5.60950
   C        5.77550         5.25591         5.04247
   C        3.96546         5.33611         1.35050
   C        3.39111         6.06010         0.33028
   C        2.05715         5.84406        -0.02080
   C        1.31871         4.91879         0.70519
   C        1.43977         6.59354        -1.11327
   C        2.09974         6.78190        -2.33835
   C        1.46457         7.48628        -3.40926
   N        2.12138         7.66190        -4.57914
   C        3.30934         7.14998        -4.70877
   C        3.91441         6.40856        -3.66677
   N        3.33024         6.23910        -2.51859
   C        0.16230         8.02718        -3.27947
   C       -0.46035         7.90579        -2.01552
   C        0.16040         7.15743        -0.96087
   N       -0.47634         6.99739         0.22321
   C       -1.63954         7.54897         0.38473
   C       -2.22844         8.33406        -0.63215
   N       -1.65333         8.50215        -1.78686
   C       -0.40844         8.66409        -4.43343
   C       -1.61701         9.25074        -4.51707
   C       -2.10869         9.97076        -5.67118
   C       -1.27240        10.55934        -6.64153
   C        0.19952        10.70996        -6.46250
   O        1.00441        10.43122        -7.32196
   C        0.59404        11.28617        -5.15529
   C        1.78642        10.98950        -4.56081
   S        1.93904        11.69090        -3.00950
   C        0.38964        12.42563        -3.15479
   C       -0.22017        12.13220        -4.33565
   C       -1.48491        12.75994        -4.80621
   O       -1.50244        13.37139        -5.85585
   C       -2.69193        12.61211        -3.96511
   C       -3.85915        13.24156        -4.40393
   C       -5.03616        13.10887        -3.69710
   C       -5.06463        12.34554        -2.54006
   C       -3.91081        11.71809        -2.09852
   C       -2.72784        11.84275        -2.80327
   C       -1.83860        11.14751        -7.76802
   C       -3.20584        11.25646        -7.91470
   C       -4.06060        10.76610        -6.91686
   C       -3.48426        10.11220        -5.82071
   C       -5.49089        10.91828        -6.87072
   C       -6.43151        11.37725        -7.73781
   C       -7.84761        11.47468        -7.37601
   C       -8.40364        11.28237        -6.13867
   C       -9.78237        11.41967        -5.86242
   N      -10.88436        11.51208        -5.55453
   C       -7.73740        10.93973        -4.94249
   N       -7.31061        10.67224        -3.90914
   C       -8.59299        11.86151        -8.56543
   C       -7.67337        12.04770        -9.63396
   C       -6.30406        11.77351        -9.16908
   O       -5.30606        11.84195        -9.85247
   C       -8.07838        12.41933       -10.88379
   C       -9.45387        12.62462       -11.12842
   C      -10.38454        12.43366       -10.06615
   C       -9.93388        12.04966        -8.78336
   C      -11.75673        12.63539       -10.32126
   C      -12.18976        13.00905       -11.56403
   C      -11.27215        13.19824       -12.60864
   C       -9.93348        13.01029       -12.39560
   H       -0.46380         0.37863         6.61488
   H        2.14340         4.49836         7.66349
   H        2.37098         3.75990         9.96671
   H        1.93814         2.10341        11.73679
   H        0.63569         0.07188        11.24495
   H       -0.23704        -0.32383         8.97602
   H        0.45646         2.61343         1.95113
   H        5.18616         3.08042         0.56742
   H        8.16742         1.75058         3.68603
   H        4.98430         3.21042         7.60882
   H        4.40571         5.39632         8.64157
   H        4.67321         7.46949         7.34202
   H        5.55803         7.38059         5.04319
   H        6.18969         5.23014         4.04453
   H        5.00130         5.50709         1.60354
   H        3.97029         6.79659        -0.20182
   H        0.28813         4.73558         0.44625
   H        3.81291         7.32076        -5.65070
   H        4.89208         5.96136        -3.78750
   H       -2.12408         7.39827         1.33975
   H       -3.17548         8.83534        -0.48355
   H        0.23869         8.63498        -5.30010
   H       -2.29803         9.17823        -3.68209
   H        2.55437        10.35231        -4.95213
   H        0.03659        13.07074        -2.37432
   H       -3.81253        13.82817        -5.30978
   H       -5.93494        13.59696        -4.04387
   H       -5.98713        12.23159        -1.99257
   H       -3.93450        11.12397        -1.19761
   H       -1.84262        11.33060        -2.45904
   H       -1.18103        11.57082        -8.51196
   H       -3.61103        11.74161        -8.78594
   H       -4.12604         9.70401        -5.05188
   H       -5.88570        10.59369        -5.91425
   H       -7.35586        12.55382       -11.67505
   H      -10.66663        11.91020        -8.00504
   H      -12.45900        12.48959        -9.51359
   H      -13.24241        13.16139       -11.74952
   H      -11.63180        13.49329       -13.58299
   H       -9.22241        13.15400       -13.19587
*
