# ORCA input file
# SCF done       -222.667568421892          0.000976632048
! CAM-B3LYP def2-SVP def2/J RIJCOSX Grid4 TightSCF
%maxcore 5000
%tddft
    Mode sTDDFT
    Ethresh 5.0
    maxcore 5000
end

%pal
  nprocs 6
  end
* xyz 0 1
   C        4.79070         5.82776       -11.69070
   C        4.53449         4.99904       -12.75454
   C        5.48484         4.66741       -13.74156
   N        6.20615         4.35648       -14.57981
   C        3.31468         4.34499       -13.02560
   N        2.37011         3.76522       -13.32908
   C        6.07619         6.46618       -11.41496
   C        5.96366         7.20382       -10.20209
   C        7.00956         7.90960        -9.68347
   C        8.24498         7.91325       -10.37015
   C        8.36680         7.18054       -11.58497
   C        7.26359         6.45670       -12.09591
   C        9.60203         7.19234       -12.26327
   C       10.66732         7.89391       -11.76723
   C       10.54618         8.61507       -10.57063
   C        9.36055         8.62413        -9.88683
   C        4.59623         7.05841        -9.67714
   O        4.15963         7.55863        -8.65294
   C        3.87867         6.21163       -10.63442
   C        2.54935         5.87449       -10.55366
   C        1.61175         6.16685        -9.55885
   S        1.85275         7.02281        -8.06231
   C        0.20776         6.75178        -7.57924
   C       -0.50933         6.05215        -8.55403
   C        0.28035         5.72217        -9.65546
   O       -0.14688         5.02668       -10.75136
   S       -0.85956         3.54615       -10.45046
   C       -2.56645         4.07740       -10.00874
   C       -2.59850         5.52258        -9.53462
   O       -1.83067         5.76560        -8.37067
   C       -0.31989         7.18357        -6.33764
   C        0.42175         7.82549        -5.40381
   C        0.00521         8.24081        -4.09673
   C        0.95581         8.75036        -3.23546
   C        0.62164         9.08811        -1.91085
   C        1.39046         9.54728        -0.85053
   C        2.83739         9.91246        -0.82519
   C        3.73899         8.69194        -1.08948
   N        5.04795         8.92954        -0.50894
   C        3.12604        11.06310        -1.80648
   N        4.46246        11.60065        -1.59217
   C        0.51634         9.61159         0.29619
   C        0.77230         9.88071         1.58943
   C       -0.28218         9.75805         2.63135
   C       -1.66679         9.53015         2.09517
   C       -1.90218         9.25963         0.79952
   C       -0.83739         9.23403        -0.13480
   C       -0.75928         8.90607        -1.47017
   C       -1.72672         8.43213        -2.38969
   C       -1.35498         8.10920        -3.65133
   C       -0.27699        10.86889         3.63964
   C        0.32458        12.05047         3.48195
   C        0.35990        13.06140         4.49482
   S       -0.43426        12.90640         6.02279
   C        0.20177        14.42779         6.59356
   C        0.98959        15.02621         5.61129
   C        1.07077        14.24697         4.43416
   O        1.80367        14.59093         3.32678
   S        1.40024        16.03897         2.59462
   C        2.26891        17.23433         3.69749
   C        2.67523        16.59437         5.01438
   O        1.58000        16.22091         5.82998
   C       -0.05208        14.83581         7.92099
   C        0.50381        15.91993         8.53159
   C        0.27314        16.19058         9.89459
   C        0.91599        17.16068        10.61708
   C        0.73612        17.44968        12.02564
   C       -0.17409        16.87815        12.87942
   C       -0.29613        17.21067        14.24435
   N       -0.45126        17.43060        15.36081
   C       -1.12135        15.89179        12.53700
   N       -1.92337        15.09093        12.34682
   C        1.69998        18.48204        12.39547
   C        2.43665        18.85195        11.23491
   C        1.97353        18.05398        10.08483
   O        2.39872        18.12102         8.94799
   C        3.41846        19.79883        11.27415
   C        3.71999        20.42970        12.50199
   C        2.99139        20.06207        13.66922
   C        1.97609        19.08051        13.59612
   C        3.30474        20.69136        14.89109
   C        4.28986        21.63861        14.95862
   C        5.00577        22.00091        13.80804
   C        4.72654        21.40948        12.60588
   H        6.89650         8.45977        -8.76108
   H        7.39046         5.91367       -13.01865
   H        9.69049         6.63498       -13.18435
   H       11.60942         7.89665       -12.29491
   H       11.39651         9.16344       -10.19314
   H        9.26107         9.17780        -8.96443
   H        2.13016         5.28930       -11.36441
   H       -2.88680         3.40000        -9.21926
   H       -3.21016         3.96671       -10.88060
   H       -3.62674         5.77545        -9.25503
   H       -2.28476         6.19252       -10.34437
   H       -1.35936         6.93880        -6.17309
   H        1.46047         8.01758        -5.64713
   H        1.97489         8.85262        -3.57654
   H        3.09166        10.26582         0.17921
   H        3.76809         8.48826        -2.17145
   H        3.30513         7.81424        -0.59739
   H        5.43054         9.77897        -0.91721
   H        5.67366         8.16073        -0.72469
   H        2.33377        11.82277        -1.68995
   H        3.08076        10.69537        -2.83382
   H        4.51861        12.03420        -0.67561
   H        4.66779        12.31371        -2.28402
   H        1.76645        10.12383         1.93879
   H       -0.02157         8.84335         3.19793
   H       -2.46597         9.56001         2.81940
   H       -2.90695         9.06308         0.45435
   H       -2.75200         8.32151        -2.06747
   H       -2.08995         7.74202        -4.34988
   H       -0.81544        10.66932         4.55747
   H        0.85572        12.29716         2.57280
   H        1.56906        18.05037         3.86553
   H        3.15403        17.60240         3.18182
   H        3.21707        17.33435         5.61156
   H        3.33281        15.73523         4.83708
   H       -0.70626        14.18651         8.49139
   H        1.16855        16.56872         7.98522
   H       -0.44517        15.55676        10.39932
   H        3.96252        20.06140        10.37880
   H        1.44483        18.82488        14.49888
   H        2.75044        20.40907        15.77417
   H        4.52312        22.11412        15.89955
   H        5.77990        22.75042        13.87905
   H        5.27502        21.68403        11.71650
*
