# ORCA input file
# SCF done       -230.510525589329          0.000309231232
! CAM-B3LYP def2-SVP def2/J RIJCOSX Grid4 TightSCF
%maxcore 5000
%tddft
    Mode sTDDFT
    Ethresh 5.0
    maxcore 5000
end

%pal
  nprocs 6
  end
* xyz 0 1
   C       -4.51343         6.29596       -10.40178
   C       -5.30521         6.46563       -11.50753
   C       -5.17407         5.71896       -12.69669
   N       -5.12431         5.13457       -13.68345
   C       -6.33853         7.41992       -11.61036
   N       -7.17617         8.19094       -11.76057
   C       -3.37204         5.39576       -10.29659
   C       -2.74729         5.59934        -9.03256
   C       -1.63956         4.89663        -8.65405
   C       -1.09333         3.94190        -9.54045
   C       -1.71560         3.72844       -10.80433
   C       -2.86334         4.46974       -11.16794
   C       -1.16639         2.76809       -11.67781
   C       -0.05540         2.05258       -11.32235
   C        0.55692         2.26403       -10.07806
   C        0.04960         3.18915        -9.20647
   C       -3.49086         6.61652        -8.27518
   O       -3.29938         6.94549        -7.12074
   C       -4.60172         7.04397        -9.16307
   C       -5.61182         7.86549        -8.75844
   C       -5.55076         8.70072        -7.60845
   C       -6.55370         8.88601        -6.69141
   C       -6.03654         9.66785        -5.60103
   C       -6.77325        10.05861        -4.47584
   N       -7.37396        10.37249        -3.54897
   C       -4.71474         9.96455        -5.84837
   C       -4.36132         9.41363        -7.11922
   C       -3.23127         9.72054        -7.85058
   C       -1.94702        10.23291        -7.31361
   C       -1.21226        10.68413        -8.37948
   C       -1.94862        10.42121        -9.58265
   C       -3.14382         9.80446        -9.26434
   C       -1.50244        10.73616       -10.87218
   N       -1.12265        10.98823       -11.92615
   C       -1.48921        10.11289        -5.97594
   C       -1.94160         9.17535        -5.10323
   C       -1.52894         9.00902        -3.74229
   C       -0.79575         9.96306        -3.05153
   C       -0.44225         9.74503        -1.71448
   C        0.27980        10.53593        -0.81283
   C        0.86549        11.87873        -1.04098
   C        1.84055        11.88423        -2.24677
   N        3.07526        12.51127        -1.83210
   C       -0.24271        12.94377        -1.21967
   N        0.32827        14.17686        -1.71375
   C        0.34420         9.79619         0.42269
   C        0.93972        10.08277         1.59700
   C        0.80866         9.18189         2.77524
   C        0.13805         7.88197         2.48890
   C       -0.42921         7.59468         1.30078
   C       -0.36962         8.52875         0.23982
   C       -0.84348         8.50919        -1.06145
   C       -1.59610         7.55499        -1.77982
   C       -1.92863         7.80740        -3.07252
   C        0.00663         9.96646         3.80482
   C        0.52591        10.94760         4.53859
   C       -0.21583        11.72750         5.50486
   C       -1.12375        11.28112         6.40853
   C       -1.49760        12.39328         7.27114
   C       -2.43186        12.32043         8.30936
   N       -3.19183        12.25521         9.16849
   C       -0.78571        13.50456         6.90607
   C        0.01166        13.16164         5.76468
   C        0.71063        14.01525         4.93882
   C        1.19701        15.38069         5.21298
   C        1.68567        15.88351         4.02966
   C        1.52398        14.89242         3.00443
   C        0.97425        13.75730         3.55998
   C        1.85053        15.03460         1.65445
   N        2.10188        15.10989         0.53463
   C        1.24664        15.97908         6.50022
   C        1.61813        17.26481         6.74565
   C        1.68788        17.86448         8.02669
   C        0.93976        17.57536         9.13661
   C        1.15276        18.12883        10.46143
   C        2.29498        18.74312        10.90830
   C        2.45990        19.24612        12.21519
   N        2.65223        19.68259        13.25967
   C        3.46758        18.92487        10.14637
   N        4.46430        19.08521         9.59809
   C       -0.02159        17.82891        11.27120
   C       -0.92468        17.05982        10.48370
   C       -0.36637        16.87053         9.13795
   O       -0.92084        16.31941         8.20690
   C       -2.11104        16.60054        10.97940
   C       -2.45839        16.90291        12.31476
   C       -1.57040        17.68880        13.10515
   C       -0.34604        18.14537        12.56361
   C       -1.93464        17.99416        14.43210
   C       -3.11575        17.54230        14.95553
   C       -3.98601        16.76403        14.17781
   C       -3.66410        16.45017        12.88508
   H       -1.18312         5.06894        -7.69033
   H       -3.31543         4.28111       -12.12871
   H       -1.64063         2.60982       -12.63517
   H        0.35799         1.31952       -11.99857
   H        1.43245         1.69017        -9.81349
   H        0.51678         3.35617        -8.24677
   H       -6.54949         7.86486        -9.30091
   H       -7.54415         8.47149        -6.73066
   H       -4.09441        10.60834        -5.25504
   H       -0.22551        11.10720        -8.35073
   H       -3.92533         9.56161        -9.95919
   H       -0.66334        10.75959        -5.70565
   H       -2.64375         8.43961        -5.47095
   H       -0.50033        10.88013        -3.53602
   H        1.46335        12.16333        -0.17042
   H        1.35492        12.39780        -3.08849
   H        2.07049        10.85653        -2.54383
   H        2.91562        13.48833        -1.61281
   H        3.78261        12.45054        -2.55426
   H       -0.76610        13.05076        -0.25351
   H       -0.97393        12.59048        -1.95256
   H        0.94305        14.59391        -1.01738
   H       -0.39748        14.84698        -1.93762
   H        1.50210        10.99471         1.74179
   H        1.80572         9.00037         3.19856
   H        0.09314         7.18374         3.31100
   H       -0.92554         6.64893         1.14023
   H       -1.90325         6.64063        -1.29449
   H       -2.50735         7.09160        -3.63747
   H       -1.04511         9.72916         3.85913
   H        1.57365        11.20599         4.43329
   H       -1.48817        10.27767         6.52468
   H       -0.91415        14.48744         7.31452
   H        2.14892        16.83849         3.86909
   H        0.66679        12.88088         3.02243
   H        1.01952        15.33900         7.33746
   H        1.95587        17.88075         5.92263
   H        2.39712        18.68068         8.10845
   H       -2.77238        16.00846        10.36402
   H        0.30319        18.73921        13.18735
   H       -1.26022        18.59086        15.02872
   H       -3.38500        17.78140        15.97348
   H       -4.91263        16.41440        14.60784
   H       -4.32793        15.84996        12.28051
*
