# ORCA input file
# SCF done       -207.921347780956          0.000594992314
! CAM-B3LYP def2-SVP def2/J RIJCOSX Grid4 TightSCF
%maxcore 5000
%tddft
    Mode sTDDFT
    Ethresh 5.0
    maxcore 5000
end

%pal
  nprocs 6
  end
* xyz 0 1
   C       -3.31774         2.44485         2.39278
   C       -3.40488         1.11446         2.04854
   C       -2.31826         0.21724         2.12112
   N       -1.45858        -0.54365         2.13619
   C       -4.52775         0.45597         1.51040
   N       -5.36776        -0.16864         1.03304
   C       -2.11312         3.12120         2.86893
   C       -2.38632         4.50824         2.98918
   C       -1.44162         5.41502         3.40332
   C       -0.16650         4.93424         3.71846
   C        0.09366         3.54862         3.60501
   C       -0.86163         2.62959         3.18446
   S        1.73005         3.17823         4.04945
   C        2.04560         4.84806         4.37451
   C        0.98010         5.65106         4.16350
   C       -3.78944         4.76458         2.61185
   O       -4.35372         5.84056         2.58237
   C       -4.35655         3.43925         2.28519
   C       -5.66884         3.19765         1.95146
   C       -6.67899         4.14164         1.77425
   C       -7.93956         3.73481         1.36952
   C       -9.09231         4.49910         1.08341
   C      -10.16255         3.75680         0.65569
   C       -9.89840         2.37655         0.59820
   S       -8.26193         2.04240         1.08947
   C      -10.66029         1.27509         0.21857
   C      -11.92110         1.14472        -0.38483
   C      -12.22309        -0.15536        -0.68858
   C      -11.22303        -1.09662        -0.33491
   S       -9.92088        -0.28651         0.48465
   C      -11.24721        -2.42572        -0.71696
   C      -10.28530        -3.43694        -0.58304
   C       -9.10295        -3.39123         0.21275
   C       -8.13686        -4.46009         0.21789
   N       -6.96781        -4.29788         0.86130
   C       -6.77298        -3.22337         1.58427
   C       -7.79890        -2.24186         1.72245
   N       -8.90121        -2.34427         1.00647
   C       -7.65037        -1.16364         2.62494
   N       -7.51700        -0.32795         3.39855
   C       -5.53178        -3.04429         2.24843
   N       -4.55161        -2.87827         2.81621
   C       -8.34864        -5.65677        -0.49288
   C       -9.51020        -5.72572        -1.28604
   C      -10.46700        -4.64585        -1.31539
   N      -11.49919        -4.92275        -2.10494
   S      -11.29648        -6.39063        -2.73958
   N       -9.89016        -6.74862        -2.04994
   C       -7.38655        -6.72055        -0.45447
   O       -7.09303        -7.36934        -1.58463
   C       -6.09434        -8.24471        -1.34397
   C       -5.74375        -8.18147         0.00796
   C       -6.59700        -7.20372         0.58617
   C       -6.82348        -6.94048         2.03268
   F       -8.00187        -6.34397         2.27749
   F       -6.87209        -8.09202         2.73965
   F       -5.88712        -6.18946         2.63533
   O       -4.76165        -8.92747         0.54079
   C       -4.10057        -8.47373         1.71213
   C       -5.56493        -9.01951        -2.43554
   C       -4.53825        -9.95280        -2.22788
   C       -4.02421       -10.62643        -3.30758
   C       -4.52026       -10.39975        -4.60312
   C       -5.55670        -9.49841        -4.80991
   C       -6.07123        -8.81571        -3.72838
   C       -3.75423       -11.20051        -5.53280
   C       -2.78812       -11.92584        -4.81315
   C       -2.93969       -11.68262        -3.32855
   C       -1.63937       -11.19413        -2.67521
   C       -1.13452        -9.89409        -3.29073
   C       -3.51270       -12.92341        -2.60260
   C       -2.65128       -14.17817        -2.65505
   C       -1.86426       -12.69332        -5.48264
   C       -1.90740       -12.78543        -6.88063
   C       -2.89938       -12.08664        -7.57571
   C       -3.81414       -11.29071        -6.91612
   C       -0.90642       -13.60513        -7.54870
   C       -0.76016       -13.78139        -8.85751
   H       -1.67972         6.46460         3.48178
   H       -0.61371         1.58363         3.11828
   H        3.02564         5.12847         4.70858
   H        0.98944         6.71571         4.31271
   H       -5.95217         2.16206         1.80295
   H       -6.47184         5.19043         1.92725
   H       -9.10170         5.56896         1.19535
   H      -11.12148         4.16826         0.39382
   H      -12.55560         1.98432        -0.60913
   H      -13.12727        -0.46376        -1.18442
   H      -12.11612        -2.72779        -1.29105
   H       -3.13711        -8.98212         1.71500
   H       -4.64900        -8.74958         2.61443
   H       -3.94057        -7.39421         1.68922
   H       -4.16433       -10.11812        -1.23189
   H       -5.94943        -9.32854        -5.80117
   H       -6.87182        -8.10512        -3.86307
   H       -0.87201       -11.96118        -2.78695
   H       -1.81634       -11.04702        -1.60787
   H       -0.94999       -10.02108        -4.35545
   H       -0.20570        -9.58884        -2.81417
   H       -1.86509        -9.09872        -3.16239
   H       -4.48657       -13.14917        -3.04516
   H       -3.68145       -12.64691        -1.55954
   H       -2.53694       -14.52726        -3.67767
   H       -3.13142       -14.96791        -2.08095
   H       -1.66755       -14.00301        -2.22761
   H       -1.08598       -13.21758        -4.94715
   H       -2.94555       -12.15840        -8.65112
   H       -4.55945       -10.73982        -7.47056
   H       -0.21913       -14.10738        -6.87782
   H       -1.39794       -13.31215        -9.58658
   H        0.01973       -14.40978        -9.25207
*
