# ORCA input file
# SCF done       -176.889039660019          0.000533312892
! CAM-B3LYP def2-SVP def2/J RIJCOSX Grid4 TightSCF
%maxcore 5000
%tddft
    Mode sTDDFT
    Ethresh 5.0
    maxcore 5000
end

%pal
  nprocs 6
  end
* xyz 0 1
   C       -3.49758        -1.50116        -1.34477
   C       -2.32562        -1.53935        -0.63204
   C       -1.44024        -2.63652        -0.62714
   N       -0.67757        -3.49421        -0.58595
   C       -1.84722        -0.51897         0.21614
   N       -1.39028         0.24768         0.93956
   C       -4.03342        -2.59759        -2.14157
   C       -5.31444        -2.22663        -2.61340
   C       -6.08675        -3.05219        -3.39312
   C       -5.57042        -4.31009        -3.72055
   C       -4.28717        -4.67222        -3.24734
   C       -3.50521        -3.83507        -2.46151
   S       -3.83986        -6.26801        -3.77236
   C       -5.36414        -6.42480        -4.60495
   C       -6.16686        -5.33989        -4.49902
  Br       -5.75082        -8.00628        -5.53680
   C       -5.64513        -0.86514        -2.14083
   O       -6.65660        -0.25432        -2.41052
   C       -4.46006        -0.41339        -1.37019
   C       -4.20310         0.85499        -0.93442
   C       -5.09045         1.96699        -0.78879
   C       -4.53402         3.26283        -0.83977
   C       -5.34494         4.35571        -0.69655
   C       -6.72562         4.19470        -0.45933
   C       -7.27616         2.92275        -0.35699
   C       -6.46281         1.82375        -0.52486
   C       -7.32593         5.49959        -0.33869
   C       -6.32380         6.47373        -0.50048
   C       -4.98186         5.82188        -0.74007
   C       -3.97640         6.18415         0.36912
   C       -4.47940         5.82959         1.76325
   C       -4.40175         6.21584        -2.11117
   C       -5.34108         5.89066        -3.26634
   C       -6.63204         7.80825        -0.42852
   C       -7.95676         8.21404        -0.18907
   C       -8.94212         7.22646        -0.03290
   C       -8.64074         5.88395        -0.10542
   C       -8.23280         9.62794        -0.11865
   C       -9.42214        10.19994         0.15474
   C       -9.69144        11.61267         0.22208
   C      -11.00322        12.07681         0.57868
   C      -12.12352        11.34609         0.88136
   S      -13.47196        12.33467         1.24158
   C      -12.56425        13.75613         0.99802
   C      -11.25864        13.49027         0.64779
   C      -10.23014        14.45478         0.37956
   N      -10.56181        15.76748         0.39831
   C       -8.96574        13.97382         0.02262
   C       -8.75049        12.57491        -0.04602
   C       -7.81149        14.78353        -0.35745
   N       -6.91812        14.15082        -1.10633
   N       -5.81336        14.66682        -1.53887
   C       -5.39372        15.89030        -1.25063
   C       -6.24000        16.68164        -0.41068
   C       -7.49466        16.12226         0.01974
   N       -8.17122        16.97684         0.78637
   S       -7.32008        18.34117         0.95895
   N       -6.05599        17.90856         0.06309
   C       -4.13520        16.33440        -1.79497
   C       -3.33640        15.48685        -2.63754
   C       -3.58110        14.19793        -3.04221
   S       -2.34016        13.58342        -4.04235
   C       -1.45550        15.03705        -3.95165
   C       -2.09021        15.97760        -3.17161
   C       -1.64817        17.30186        -2.87418
   N       -0.44883        17.75498        -3.34398
   C       -2.44407        18.07680        -2.05506
   C       -3.64709        17.60241        -1.53401
   H       -7.05986        -2.73794        -3.73672
   H       -2.53140        -4.15542        -2.13120
   H       -7.13952        -5.26576        -4.95013
   H       -3.17172         1.07985        -0.68531
   H       -3.47349         3.37499        -1.01585
   H       -8.32674         2.79464        -0.14506
   H       -6.87986         0.83677        -0.41994
   H       -3.77437         7.25610         0.31900
   H       -3.03890         5.65796         0.17786
   H       -5.40336         6.35942         1.98474
   H       -3.73722         6.10474         2.50895
   H       -4.66784         4.76136         1.84460
   H       -3.45454         5.69120        -2.25399
   H       -4.19236         7.28751        -2.10609
   H       -5.55211         4.82409        -3.30383
   H       -4.88829         6.18532        -4.21031
   H       -6.28333         6.42278        -3.15589
   H       -5.86532         8.55991        -0.55272
   H       -9.96474         7.52084         0.14468
   H       -9.41585         5.14175         0.01593
   H       -7.37564        10.26086        -0.30281
   H      -10.27280         9.56429         0.35082
   H      -12.24903        10.28330         0.91576
   H      -13.05698        14.69992         1.12545
   H      -11.45282        16.01711         0.78926
   H       -9.80955        16.44162         0.50840
   H       -7.75728        12.28047        -0.34015
   H       -4.42806        13.59235        -2.79844
   H       -0.51865        15.11104        -4.46717
   H       -0.01886        17.27550        -4.11455
   H       -0.25885        18.73957        -3.26527
   H       -2.12775        19.08121        -1.81315
   H       -4.22236        18.26145        -0.90415
*
