# ORCA input file
# SCF done       -215.476491372280          0.000828779806
! CAM-B3LYP def2-SVP def2/J RIJCOSX Grid4 TightSCF
%maxcore 5000
%tddft
    Mode sTDDFT
    Ethresh 5.0
    maxcore 5000
end

%pal
  nprocs 6
  end
* xyz 0 1
   C       -3.80635        14.74316         0.43138
   C       -4.26080        15.70242         1.29966
   C       -3.50679        16.81800         1.71563
   N       -2.93943        17.74395         2.08775
   C       -5.54416        15.69329         1.88258
   N       -6.57953        15.72399         2.37767
   C       -2.48820        14.71523        -0.19907
   C       -2.40333        13.57547        -1.04056
   C       -1.27775        13.27398        -1.76834
   C       -0.18153        14.13656        -1.66134
   C       -0.27472        15.27013        -0.81978
   C       -1.41443        15.57573        -0.08392
   S        1.19319        16.19763        -0.83166
   C        1.90365        15.06666        -1.95238
   C        1.08495        14.04541        -2.30061
  Br        3.65903        15.33797        -2.55434
   C       -3.67057        12.83843        -0.96678
   O       -3.96932        11.80284        -1.55633
   C       -4.52277        13.58060        -0.03565
   C       -5.78377        13.13877         0.29068
   N       -6.25849        12.01314        -0.25139
   C       -7.45272        11.42154        -0.00331
   S       -8.59777        12.10679         1.10774
   C       -9.64502        10.75549         0.81867
   N      -10.87681        10.72758         1.48989
   O      -11.60973         9.77960         1.28348
   O      -11.11754        11.66258         2.23170
   C       -9.14310         9.84370        -0.06781
   C       -7.87378        10.20737        -0.56648
   C       -7.11305         9.46566        -1.52666
   C       -7.39408         8.19018        -1.88571
   C       -6.69198         7.45768        -2.87032
   S       -5.58788         8.27686        -3.93146
   C       -5.23085         6.84561        -4.82583
   C       -5.92907         5.74586        -4.29996
   C       -6.76615         6.09116        -3.18952
   C       -7.51432         5.05731        -2.56818
   S       -8.53407         5.36945        -1.15836
   C       -7.43537         3.77707        -3.06075
   C       -6.62610         3.46116        -4.16017
   C       -5.87638         4.42226        -4.77490
   C       -4.37720         6.85051        -5.95577
   C       -3.86227         7.95781        -6.53616
   C       -3.06498         7.96640        -7.73626
   C       -2.40013         6.82019        -8.20039
   C       -1.72076         6.86497        -9.39148
   C       -1.69619         8.04147       -10.16111
   C       -2.31812         9.19329        -9.69629
   C       -2.98190         9.14846        -8.48834
   C       -0.94792         7.78203       -11.36950
   C       -0.48520         6.45238       -11.33646
   C       -0.98169         5.74709       -10.09551
   C        0.16941         5.19152        -9.24335
   C        1.14592         6.27860        -8.80878
   C       -2.02420         4.65413       -10.43158
   C       -1.54510         3.52627       -11.33557
   C        0.31793         5.97854       -12.34291
   C        0.60189         6.79092       -13.45546
   C        0.10058         8.10099       -13.48835
   C       -0.64805         8.60618       -12.44749
   C        1.37349         6.22414       -14.52614
   C        1.45077         6.68759       -15.79696
   C        2.18527         6.00979       -16.79815
   C        2.13528         6.20737       -18.14629
   C        1.22747         6.97130       -18.97268
   C       -0.08695         7.25576       -18.70097
   C       -0.93009         7.97531       -19.57222
   N       -1.65229         8.57601       -20.23213
   C       -0.79436         6.76627       -17.58297
   N       -1.44126         6.35126       -16.73017
   C        1.88273         7.17669       -20.26163
   C        3.05413         6.37896       -20.30773
   C        3.22280         5.68696       -19.01305
   O        4.08672         4.89859       -18.70120
   C        3.86023         6.31613       -21.41797
   C        3.49922         7.08201       -22.53171
   C        2.33659         7.88652       -22.46993
   C        1.51703         7.94618       -21.34935
   S        2.08152         8.75628       -23.95229
   C        3.51620         8.03162       -24.62861
   C        4.15666         7.18474       -23.78842
  Br        4.03273         8.46286       -26.37936
   H       -1.24175        12.39984        -2.39935
   H       -1.43571        16.45067         0.54387
   H        1.36173        13.25941        -2.97921
   H       -6.42308        13.66521         0.98731
   H       -5.59675        11.55386        -0.90376
   H       -9.68844         8.96152        -0.34841
   H       -6.26380         9.95819        -1.98170
   H       -8.20646         7.68109        -1.39405
   H       -8.93719         4.10779        -1.00725
   H       -8.00471         2.98672        -2.59274
   H       -6.60142         2.44048        -4.50920
   H       -5.24875         4.17408        -5.61536
   H       -4.18271         5.88188        -6.39292
   H       -4.11703         8.92537        -6.12109
   H       -2.41005         5.91618        -7.61077
   H       -2.28716        10.10666       -10.27114
   H       -3.47854        10.03382        -8.11802
   H        0.70882         4.43762        -9.81791
   H       -0.24876         4.70482        -8.35967
   H        1.58496         6.76835        -9.67535
   H        1.94793         5.84683        -8.21448
   H        0.64079         7.03282        -8.20927
   H       -2.87881         5.14210       -10.90741
   H       -2.37126         4.22999        -9.48645
   H       -1.31497         3.89743       -12.33021
   H       -2.33472         2.78385       -11.42989
   H       -0.66764         3.03230       -10.92632
   H        0.72755         4.98025       -12.30730
   H        0.32756         8.73488       -14.33129
   H       -1.00281         9.62553       -12.47328
   H        1.86869         5.28637       -14.30146
   H        0.92594         7.58864       -16.07716
   H        2.92044         5.28276       -16.46772
   H        4.73992         5.69200       -21.42976
   H        0.64363         8.57707       -21.34702
   H        5.05558         6.65326       -24.04222
*
