# ORCA input file
# SCF done       -229.594281190319          0.000526190567
! CAM-B3LYP def2-SVP def2/J RIJCOSX Grid4 TightSCF
%maxcore 5000
%tddft
    Mode sTDDFT
    Ethresh 5.0
    maxcore 5000
end

%pal
  nprocs 6
  end
* xyz 0 1
   C       -2.43925        -2.36527         3.86106
   C       -3.01763        -1.25576         4.41058
   F       -2.44273        -0.64299         5.45184
   C       -4.22383        -0.74275         3.89033
   F       -4.76693         0.34575         4.44815
   C       -4.83465        -1.34740         2.82760
   C       -4.26309        -2.49215         2.23881
   C       -3.04418        -3.01255         2.76453
   C       -2.45412        -4.16132         2.19147
   C       -3.06467        -4.77042         1.12578
   C       -4.27648        -4.23902         0.60081
   C       -4.86996        -3.13154         1.13530
   C       -4.71350        -5.04783        -0.55426
   O       -5.71194        -4.88031        -1.21771
   C       -3.63702        -6.05079        -0.76442
   C       -2.70227        -5.94846         0.34965
   C       -1.74247        -6.86425         0.68126
   C       -0.89743        -6.74652         1.80682
   N       -0.18659        -6.70476         2.70635
   C       -1.50779        -8.07609         0.00008
   N       -1.27352        -9.10085        -0.46296
   C       -3.47168        -6.80229        -1.87411
   C       -4.45316        -6.95523        -2.98147
   C       -3.86854        -7.54365        -4.25043
   C       -5.03086        -7.44733        -5.28910
   C       -6.25168        -6.62423        -4.84899
   C       -6.53170        -5.48163        -5.46857
   O       -7.20237        -7.07865        -3.95048
   C       -6.89893        -7.45193        -2.58742
   C       -5.51616        -8.05648        -2.66991
   C       -4.73623        -9.01120        -1.82087
   C       -3.65635        -9.42879        -2.48023
   C       -3.38880        -9.00558        -3.91414
   C       -1.90994        -9.19342        -4.25258
   C       -7.97572        -8.45052        -2.16275
   C       -8.19619        -8.48128        -0.65288
   C       -9.22818        -9.55067        -0.30966
   N       -9.63828        -9.48532         1.08796
   C      -10.01987       -10.60630         1.75379
   S      -11.51327       -10.64795         2.64602
   C      -11.24986       -12.32583         3.01039
   N      -12.17785       -12.97728         3.82271
   O      -11.98610       -14.15469         4.07092
   O      -13.11890       -12.31405         4.22794
   C      -10.09331       -12.81557         2.46000
   C       -9.36393       -11.83754         1.76778
   C       -8.02135       -12.06381         1.25435
   C       -6.99098       -11.26888         1.57381
   C       -5.64325       -11.48092         1.12007
   C       -5.22601       -11.91277        -0.12590
   C       -6.14210       -12.05730        -1.18087
   N       -6.93428       -12.11027        -2.00845
   C       -3.81072       -12.04324        -0.21017
   C       -3.20106       -11.71245         0.99274
   S       -4.30576       -11.20574         2.21176
   S       -1.47076       -11.85452         1.01237
   C       -1.54791       -12.33620        -0.64500
   C       -2.83550       -12.40094        -1.18472
   C       -2.80405       -12.75028        -2.55425
   C       -3.89593       -12.66586        -3.43605
   N       -4.73816       -12.50404        -4.19652
   C       -1.50872       -12.95769        -3.01924
   S       -0.30647       -12.67832        -1.77705
   C       -1.10598       -13.25583        -4.34668
   C       -1.81368       -14.02251        -5.22241
   C       -2.81810       -15.04804        -4.82059
   O       -3.30494       -15.22017        -3.72650
   C       -2.99910       -15.89576        -6.01306
   C       -3.77673       -17.01009        -6.14794
   C       -3.80642       -17.67912        -7.39160
   C       -3.02018       -17.18235        -8.47239
   C       -3.05029       -17.85810        -9.70891
   C       -3.82525       -18.97290        -9.86592
   C       -4.60312       -19.46267        -8.79677
   C       -4.59529       -18.82987        -7.58527
   F       -5.35066       -20.55807        -8.97921
   F       -3.85262       -19.61331       -11.04078
   C       -2.22448       -16.02662        -8.30242
   C       -2.21742       -15.38917        -7.08973
   C       -1.52480       -14.19202        -6.63274
   C       -0.83175       -13.30324        -7.40993
   C       -0.32814       -12.07479        -6.93095
   N        0.06597       -11.04901        -6.59958
   C       -0.59063       -13.48307        -8.78795
   N       -0.35495       -13.59209        -9.90561
   H       -1.51732        -2.74549         4.27264
   H       -5.75645        -0.94188         2.44080
   H       -1.52662        -4.52628         2.60288
   H       -5.78915        -2.74750         0.71965
   H       -2.51893        -7.29775        -2.00605
   H       -4.93669        -5.98968        -3.15549
   H       -3.01195        -6.97104        -4.61302
   H       -5.37568        -8.44183        -5.58272
   H       -4.65518        -6.96982        -6.19387
   H       -5.92672        -5.10570        -6.27246
   H       -7.40302        -4.91226        -5.19984
   H       -6.94563        -6.54850        -1.96662
   H       -5.65498        -8.66139        -3.57100
   H       -4.98619        -9.27734        -0.80815
   H       -2.90894       -10.05246        -2.02150
   H       -3.95348        -9.70383        -4.54708
   H       -1.27854        -8.57866        -3.61428
   H       -1.71495        -8.93047        -5.28896
   H       -1.61882       -10.23237        -4.11588
   H       -8.90204        -8.16011        -2.66092
   H       -7.70362        -9.44811        -2.51440
   H       -8.54732        -7.50508        -0.31222
   H       -7.26050        -8.69980        -0.13718
   H       -8.81179       -10.53879        -0.50747
   H      -10.10719        -9.41794        -0.95386
   H      -10.20994        -8.67426         1.28812
   H       -9.77297       -13.83278         2.59540
   H       -7.86469       -12.95984         0.66916
   H       -7.14319       -10.44342         2.25664
   H       -0.14699       -12.85245        -4.65071
   H       -4.36433       -17.37173        -5.31805
   H       -2.46316       -17.49561       -10.53823
   H       -5.19651       -19.21661        -6.77742
   H       -1.63421       -15.67659        -9.13424
*
