# ORCA input file
# SCF done       -216.331884353815          0.000470542497
! CAM-B3LYP def2-SVP def2/J RIJCOSX Grid4 TightSCF
%maxcore 5000
%tddft
    Mode sTDDFT
    Ethresh 5.0
    maxcore 5000
end

%pal
  nprocs 6
  end
* xyz 0 1
   C       -6.27713         2.38681         9.30499
   C       -5.29247         2.82603        10.14502
   F       -5.60909         3.36850        11.32735
   C       -3.93549         2.71356         9.78034
   F       -2.99260         3.15229        10.62348
   C       -3.58181         2.16282         8.58006
   C       -4.57310         1.70000         7.69347
   C       -5.94544         1.81257         8.06138
   C       -6.95818         1.34857         7.19114
   C       -6.60866         0.78492         5.99208
   C       -5.23579         0.68128         5.63149
   C       -4.23589         1.12469         6.44783
   C       -5.12786         0.05214         4.30637
   O       -4.11237        -0.12448         3.65701
   C       -6.50544        -0.24404         3.88282
   C       -7.41568         0.20289         4.92496
   C       -8.77443         0.03262         4.95883
   C       -9.53422        -0.63285         3.97423
   N      -10.20158        -1.18480         3.21973
   C       -9.60148         0.47636         6.01334
   N      -10.32894         0.81459         6.83372
   C       -6.89827        -0.70265         2.65460
   N       -6.17899        -1.29518         1.67977
   C       -5.02443        -2.02589         1.69955
   S       -4.28081        -2.59389         3.14646
   C       -3.23310        -3.59562         2.20629
   N       -2.29334        -4.37424         2.89701
   O       -1.54788        -5.07766         2.24497
   O       -2.30848        -4.28937         4.11206
   C       -3.43353        -3.48850         0.85485
   C       -4.46020        -2.58276         0.53816
   C       -4.87313        -2.32951        -0.81617
   C       -5.45941        -1.21107        -1.29025
   C       -5.90763        -1.06154        -2.63616
   C       -6.48522         0.07972        -3.17771
   C       -6.65963         1.22913        -2.38951
   N       -6.77921         2.11621        -1.67280
   C       -6.87541        -0.09439        -4.53281
   C       -6.58172        -1.38114        -4.97285
   S       -5.83023        -2.37503        -3.78796
   S       -7.05366        -1.73335        -6.60302
   C       -7.66619        -0.11554        -6.71061
   C       -7.50497         0.65966        -5.56704
   C       -8.02471         1.97051        -5.74988
   C       -8.15531         2.91826        -4.72396
   N       -8.32051         3.67698        -3.87981
   C       -8.56718         2.15690        -7.01763
   S       -8.47199         0.69709        -7.99302
   C       -9.18652         3.29465        -7.59047
   C       -8.86801         4.61042        -7.39773
   C       -9.57897         5.70524        -7.96686
   C       -9.00142         6.91426        -7.75429
   C       -7.78647         6.84763        -7.02674
   S       -7.43973         5.20012        -6.56446
   C       -6.92663         7.89332        -6.74912
   C       -7.10254         9.25592        -7.08920
   C       -6.04540        10.04737        -6.76062
   C       -4.97498         9.35162        -6.14576
   S       -5.38181         7.66219        -5.96532
   C       -3.75060         9.83469        -5.72767
   C       -3.31325        11.13854        -5.95404
   C       -2.11621        11.70347        -5.57419
   C       -1.63248        12.90410        -6.29483
   O       -2.26946        13.60202        -7.05417
   C       -0.20446        13.02733        -5.93469
   C        0.72856        13.90207        -6.40932
   C        2.06003        13.80523        -5.94474
   C        2.39638        12.79774        -4.99531
   C        3.72698        12.70089        -4.54223
   C        4.67845        13.56429        -5.00864
   C        4.34448        14.56036        -5.94699
   C        3.06255        14.67999        -6.40588
   F        5.29830        15.39263        -6.38932
   F        5.94367        13.46980        -4.57629
   C        1.40444        11.91046        -4.51517
   C        0.12107        12.02665        -4.97510
   C       -1.09816        11.28383        -4.64947
   C       -1.26878        10.50032        -3.53300
   C       -2.52075        10.04143        -3.07592
   N       -3.52074         9.69116        -2.63379
   C       -0.22718        10.16275        -2.64692
   N        0.59015         9.83858        -1.90813
   H       -7.31073         2.47927         9.60001
   H       -2.53889         2.08373         8.31608
   H       -7.98646         1.45166         7.49749
   H       -3.20260         1.03112         6.15071
   H       -7.93459        -0.56084         2.37331
   H       -6.63859        -1.33148         0.77334
   H       -2.84841        -4.02683         0.13153
   H       -4.65784        -3.13144        -1.51200
   H       -5.58268        -0.32876        -0.67503
   H       -9.95958         3.08822        -8.32057
   H      -10.49410         5.55116        -8.51031
   H       -9.39905         7.84556        -8.11406
   H       -7.99754         9.61429        -7.56461
   H       -6.00957        11.10585        -6.94258
   H       -3.08523         9.13210        -5.24776
   H       -3.91427        11.77434        -6.59397
   H        0.45667        14.65696        -7.13133
   H        3.99921        11.94570        -3.82150
   H        2.82272        15.44795        -7.12454
   H        1.68976        11.15427        -3.80145
*
