# ORCA input file
# SCF done       -186.542236028800          0.000302655259
! CAM-B3LYP def2-SVP def2/J RIJCOSX Grid4 TightSCF
%maxcore 5000
%tddft
    Mode sTDDFT
    Ethresh 5.0
    maxcore 5000
end

%pal
  nprocs 6
  end
* xyz 0 1
   C        0.12819         1.65832        -0.36447
   C       -1.17252         1.27452        -0.59382
   N       -2.16825         2.24605        -0.87854
   O       -1.85173         3.41485        -0.75311
   O       -3.26778         1.87321        -1.23752
   C       -1.37569        -0.13522        -0.52099
   C       -2.71107        -0.78328        -0.60740
   C       -0.19074        -0.78393        -0.25675
   S        1.13266         0.33846        -0.03405
   C        0.09570        -2.19286        -0.15755
   C        1.09609        -2.65673         0.71732
   C        1.42163        -4.05805         0.85097
   N        2.43888        -4.42012         1.65149
   C        3.08293        -3.50866         2.33675
   C        2.70867        -2.12636         2.26069
   N        1.74949        -1.74394         1.45679
   C        3.38140        -1.16201         3.04992
   N        3.94716        -0.41251         3.70645
   C        4.16131        -3.90596         3.16481
   N        5.03168        -4.19649         3.85123
   C        0.74932        -5.05410         0.11274
   C       -0.19861        -4.58175        -0.81551
   C       -0.51959        -3.17451        -0.95238
   N       -1.41178        -2.96325        -1.92354
   S       -1.83295        -4.36919        -2.56694
   N       -0.90696        -5.32536        -1.67249
   C        1.03718        -6.46972         0.26869
   C        0.94944        -7.32695        -0.83865
   C        1.21873        -8.66214        -0.68302
   C        1.58076        -9.18354         0.57144
   C        1.65718        -8.34559         1.67651
   C        1.38380        -7.00312         1.51827
   C        1.82571       -10.59871         0.42473
   C        1.59891       -10.95900        -0.91835
   C        1.14281        -9.76159        -1.72025
   C       -0.34077        -9.87250        -2.14417
   C       -0.68999       -11.04604        -3.04994
   C        2.05900        -9.48750        -2.92200
   C        3.50470        -9.24344        -2.50393
   C        1.82284       -12.24706        -1.33224
   C        2.25616       -13.21973        -0.41242
   C        2.45652       -12.84564         0.92535
   C        2.25051       -11.54934         1.34528
   C        2.45258       -14.56069        -0.88891
   C        3.10433       -15.56063        -0.24636
   C        3.25557       -16.87597        -0.74746
   S        4.63415       -17.81018        -0.27026
   C        4.27135       -19.10803        -1.37896
   C        3.02741       -18.86852        -2.00503
   C        2.46151       -17.60696        -1.65320
   C        1.18734       -17.26902        -2.13236
   C        0.49245       -18.11857        -2.96554
   C       -0.83534       -17.74281        -3.44653
   C       -1.22459       -16.49811        -3.69020
   C        1.05285       -19.38066        -3.30857
   C        0.29597       -20.33290        -4.18339
   C        2.28474       -19.73753        -2.82023
   C        5.22680       -20.11863        -1.53597
   C        5.33373       -20.99497        -2.59005
   C        6.34395       -21.95319        -2.67553
   C        6.54279       -22.79648        -3.74978
   C        5.81685       -22.90054        -4.95860
   C        6.30093       -23.83303        -5.82581
   C        7.44061       -24.52339        -5.35332
   S        7.86929       -23.94645        -3.75672
   C        8.16058       -25.50508        -6.00061
   C        7.91427       -26.04094        -7.29356
   C        8.79416       -26.99303        -7.67976
   C        9.81131       -27.28529        -6.71257
   S        9.56483       -26.26618        -5.28505
   C       10.81212       -28.17173        -6.81373
   H        0.49893         2.66450        -0.36481
   H       -3.46265        -0.15582        -0.13397
   H       -2.69649        -1.75748        -0.12834
   H       -3.00048        -0.91124        -1.64901
   H        0.68999        -6.92294        -1.80342
   H        1.91710        -8.73636         2.64870
   H        1.41666        -6.35277         2.37722
   H       -0.61029        -8.94002        -2.64452
   H       -0.94354        -9.94198        -1.23485
   H       -0.09558       -11.03724        -3.95983
   H       -1.73862       -10.98161        -3.33276
   H       -0.53839       -11.99101        -2.53533
   H        1.68250        -8.61390        -3.45803
   H        2.02514       -10.34006        -3.60176
   H        3.57511        -8.37972        -1.84671
   H        4.12340        -9.06114        -3.37973
   H        3.90228       -10.10756        -1.97582
   H        1.69657       -12.52989        -2.36705
   H        2.77083       -13.58955         1.64120
   H        2.41968       -11.27531         2.37586
   H        2.08169       -14.75171        -1.88692
   H        3.62537       -15.35215         0.67879
   H        0.71591       -16.36204        -1.79110
   H       -1.52862       -18.55470        -3.61750
   H       -0.56451       -15.65505        -3.57216
   H       -2.21906       -16.27582        -4.03693
   H        0.01714       -19.85441        -5.12119
   H       -0.61751       -20.66560        -3.69020
   H        0.89872       -21.21022        -4.40537
   H        2.66595       -20.72393        -3.03080
   H        6.00144       -20.15259        -0.77905
   H        4.64640       -20.90911        -3.41615
   H        7.03137       -22.03855        -1.84442
   H        4.95981       -22.28480        -5.16467
   H        5.87108       -24.03907        -6.78963
   H        7.09061       -25.69867        -7.89463
   H        8.76839       -27.50947        -8.62274
   H       10.92667       -28.77071        -7.69980
   H       11.52601       -28.31162        -6.02304
*
