# ORCA input file
# SCF done       -147.965982790026          0.000963965480
! CAM-B3LYP def2-SVP def2/J RIJCOSX Grid4 TightSCF
%maxcore 5000
%tddft
    Mode sTDDFT
    Ethresh 5.0
    maxcore 5000
end

%pal
  nprocs 6
  end
* xyz 0 1
   C       10.48520       -11.76966       -17.08234
   C       11.30569       -11.32975       -16.11362
   C       12.39941       -10.41624       -16.23169
   C       13.04096       -10.16005       -15.06291
   C       12.51076       -10.84350       -13.94389
   S       11.15593       -11.83941       -14.42406
   C       12.94135       -10.76124       -12.62711
   C       13.99727        -9.99400       -12.11014
   C       14.14437       -10.10486       -10.74940
   C       13.21833       -10.95806       -10.13859
   S       12.14849       -11.64370       -11.34052
   C       13.09523       -11.21707        -8.77171
   C       12.15834       -12.04440        -8.21040
   C       11.96792       -12.21080        -6.83360
   C       10.99673       -12.99327        -6.20861
   C       10.98458       -12.87964        -4.83359
   C       11.95195       -12.00781        -4.33565
   S       12.90585       -11.34649        -5.63752
   C       12.13957       -11.58397        -3.01145
   C       11.33418       -11.87377        -1.90632
   C       11.69597       -11.17567        -0.78064
   C       12.80977       -10.33534        -0.95191
   S       13.42572       -10.49044        -2.57881
   C       13.23359        -9.42076         0.00515
   C       14.30741        -8.53480         0.00758
   C       14.35280        -7.49559         0.98011
   N       15.27074        -6.58717         1.08763
   C       16.36985        -6.57517         0.29725
   C       16.49493        -7.59500        -0.69697
   C       15.43488        -8.55039        -0.87116
   N       15.69170        -9.39590        -1.85517
   S       17.12890        -9.03376        -2.50992
   N       17.48531        -7.77328        -1.55452
   C       17.27988        -5.54603         0.48758
   C       16.98609        -4.48280         1.33720
   C       17.76450        -3.35344         1.60958
   C       17.12640        -2.41388         2.39005
   C       15.82730        -2.78594         2.73894
   S       15.43666        -4.37784         2.12371
   C       14.86552        -2.01805         3.41359
   C       14.99449        -0.75166         3.98149
   C       13.81047        -0.24325         4.47703
   C       12.71605        -1.09169         4.30998
   S       13.21995        -2.57798         3.53919
   C       11.37896        -0.82521         4.63025
   C       10.34191        -1.68890         4.39495
   C        8.99192        -1.40687         4.61748
   C        7.90955        -2.25956         4.37215
   C        6.68217        -1.70463         4.63950
   C        6.75165        -0.38289         5.10708
   S        8.42029         0.13550         5.20995
   C        5.70070         0.46057         5.43949
   C        4.31802         0.16634         5.38996
   C        3.51275         1.19546         5.75824
   C        4.21321         2.38624         6.12750
   S        5.95505         2.10465         5.97723
   C        3.69637         3.56034         6.52684
   H       10.60697       -11.43494       -18.09712
   H        9.68855       -12.46068       -16.87766
   H       12.65934        -9.98675       -17.18271
   H       13.88165        -9.49575       -14.96894
   H       14.61992        -9.37929       -12.73463
   H       14.89528        -9.58649       -10.17930
   H       13.78400       -10.69490        -8.11897
   H       11.48343       -12.58639        -8.86111
   H       10.31671       -13.61063        -6.76876
   H       10.29680       -13.40326        -4.19441
   H       10.50033       -12.55107        -1.95341
   H       11.17796       -11.23964         0.16056
   H       12.58617        -9.35664         0.87385
   H       13.53742        -7.41492         1.68875
   H       18.20266        -5.54973        -0.07122
   H       18.76064        -3.24088         1.21842
   H       17.56567        -1.47476         2.67721
   H       15.93368        -0.22942         4.01620
   H       13.71618         0.72317         4.94037
   H       11.16568         0.14412         5.06318
   H       10.56577        -2.66409         3.98008
   H        8.05195        -3.25939         4.00110
   H        5.74730        -2.21753         4.50352
   H        3.95975        -0.79984         5.08139
   H        2.43833         1.15759         5.78203
   H        2.63166         3.69209         6.60280
   H        4.32141         4.39697         6.77864
*
