# ORCA input file
# SCF done       -171.705470761056          0.000819659985
! CAM-B3LYP def2-SVP def2/J RIJCOSX Grid4 TightSCF
%maxcore 5000
%tddft
    Mode sTDDFT
    Ethresh 5.0
    maxcore 5000
end

%pal
  nprocs 6
  end
* xyz 0 1
   C       -9.66899         8.98947        -0.84624
   C       -9.74336         7.73428        -0.28312
   C       -8.54594         7.38498         0.43503
   N       -8.39368         6.15742         0.96935
   C       -9.41467         5.35546         0.86181
   C      -10.63663         5.72007         0.22373
   C      -11.77006         4.74435         0.15195
   C      -11.47844         3.65216        -0.87866
   N      -10.78773         6.87889        -0.35962
   C       -7.59309         8.40326         0.42486
   S       -8.17356         9.74049        -0.51604
   C       -6.32259         8.41559         1.04727
   C       -5.17021         9.21049         0.61540
   N       -4.08309         8.98430         1.29346
   C       -4.42499         8.05303         2.23072
   C       -5.83627         7.68521         2.11105
   C       -6.19272         6.77189         3.16723
   S       -7.74193         6.38966         3.58060
   C       -4.95592         6.47347         3.83975
   C       -3.89318         7.31495         3.25924
   N       -2.70284         7.09938         3.88164
   C       -2.93920         6.16609         4.75780
   C       -4.32568         5.69356         4.79901
   C       -4.78201         4.63824         5.65862
   C       -6.13232         4.45438         5.90986
   C       -6.56150         3.42735         6.76498
   C       -7.83369         3.04333         7.19444
   C       -9.16140         3.63644         6.89581
   C       -9.32394         5.02483         7.56840
   N       -8.40190         6.00289         7.04446
   C       -9.47111         3.70695         5.38944
   N      -10.82466         4.19851         5.19682
   C       -7.65147         1.90309         8.06519
   C       -8.54138         1.14289         8.73086
   C       -8.11519        -0.03098         9.54527
   C       -6.63888        -0.24223         9.60357
   C       -5.75955         0.53422         8.94305
   C       -6.21650         1.60982         8.14491
   C       -5.56775         2.54264         7.35934
   C       -4.19911         2.73727         7.07117
   C       -3.82335         3.75207         6.25242
   C       -8.70028         0.08580        10.93311
   C       -9.94985        -0.27906        11.23491
   C      -10.53832        -0.18648        12.53712
   C      -11.97480        -0.33159        12.77231
   N      -12.33368        -0.24028        14.02096
   C      -11.17495        -0.04325        14.71104
   C      -10.01979         0.01412        13.79759
   C       -8.80596         0.16426        14.56878
   S       -7.25239         0.23582        14.02018
   C       -9.24416         0.19416        15.93579
   C      -10.70783         0.07130        15.99388
   N      -11.14598         0.07158        17.28728
   C      -10.07720         0.16538        18.01887
   C       -8.82336         0.23710        17.25142
   C       -7.54402         0.31298        17.83869
   C       -7.23102         0.27667        19.20552
   C       -5.81789         0.35107        19.44928
   N       -5.32263         0.32114        20.70885
   C       -6.20186         0.22500        21.66072
   C       -7.61035         0.15689        21.43259
   C       -8.54419         0.05610        22.59910
   C      -10.01148         0.04370        22.19423
   N       -8.10833         0.18114        20.22242
   C       -5.08694         0.45131        18.28280
   S       -6.08331         0.44989        16.90614
   H      -10.41809         9.49751        -1.41878
   H       -9.29234         4.36805         1.28685
   H      -12.67373         5.28424        -0.13170
   H      -11.92005         4.28932         1.13379
   H      -11.34505         4.09362        -1.86343
   H      -12.30742         2.95010        -0.92229
   H      -10.57407         3.10609        -0.61874
   H       -5.18379         9.91625        -0.19717
   H       -2.14507         5.83503         5.40366
   H       -6.84766         5.12753         5.47406
   H       -9.93069         3.00005         7.34827
   H       -9.12938         4.90511         8.63818
   H      -10.37764         5.30842         7.42933
   H       -8.31630         6.79956         7.66163
   H       -8.70074         6.32844         6.13212
   H       -9.30410         2.70539         4.95776
   H       -8.79131         4.39866         4.89730
   H      -11.50761         3.48744         5.43607
   H      -10.97197         4.47195         4.23323
   H       -9.60405         1.34396         8.70898
   H       -8.57333        -0.91852         9.07744
   H       -6.30688        -1.05796        10.22712
   H       -4.69826         0.34643         9.01269
   H       -3.46468         2.07170         7.50051
   H       -2.77926         3.88197         6.01526
   H       -8.05024         0.50440        11.68648
   H      -10.60413        -0.66989        10.46273
   H      -12.70972        -0.49229        12.00176
   H      -10.12370         0.19067        19.09191
   H       -5.81583         0.19866        22.67158
   H       -8.34582         0.89837        23.26913
   H       -8.30035        -0.85565        23.15354
   H      -10.26248         0.95468        21.65760
   H      -10.64390        -0.02833        23.07531
   H      -10.21749        -0.80314        21.54545
   H       -4.02171         0.51862        18.18896
*
