# ORCA input file
# SCF done       -190.521159359552          0.000586435126
! CAM-B3LYP def2-SVP def2/J RIJCOSX Grid4 TightSCF
%maxcore 5000
%tddft
    Mode sTDDFT
    Ethresh 5.0
    maxcore 5000
end

%pal
  nprocs 6
  end
* xyz 0 1
   C       -7.12155        -0.14864        -2.13619
   C       -7.70814         0.44499        -1.04562
   C       -6.91015         1.52373        -0.51198
   N       -7.36475         2.24682         0.52595
   C       -8.49005         1.88612         1.06295
   C       -9.22970         0.74813         0.61064
   C      -10.43523         0.29538         1.36883
   C       -9.99987        -0.47087         2.62113
   N       -8.85847         0.07537        -0.43956
   C       -5.70741         1.70381        -1.19729
   S       -5.61893         0.57725        -2.51181
   C       -4.71550         2.70329        -1.00280
   C       -3.89800         3.22484        -1.97109
   C       -3.21683         4.36324        -1.42308
   C       -2.26156         5.12557        -2.10495
   N       -1.48484         5.75504        -2.67061
   C       -3.65396         4.57418        -0.13105
   C       -4.55861         3.52994         0.20881
   C       -5.08072         3.25645         1.45597
   C       -5.31797         4.21085         2.55380
   C       -5.77117         3.49072         3.62844
   C       -5.80626         2.09635         3.27242
   C       -5.40747         1.95672         1.96385
   C       -6.25216         1.06678         4.10678
   N       -6.66059         0.22872         4.77882
   C       -5.20815         5.62693         2.43398
   C       -5.15778         6.47321         3.48972
   C       -4.98401         7.89677         3.44157
   C       -4.73736         8.55899         4.63237
   C       -4.47583         9.93821         4.63990
   C       -4.13997        10.80956         5.67381
   C       -4.02035        10.62025         7.15303
   C       -5.33560        11.05498         7.84291
   N       -6.45396        10.20750         7.46513
   C       -3.52039         9.25386         7.65376
   N       -4.48755         8.17328         7.55213
   C       -3.93399        12.10684         5.06718
   C       -3.52528        13.27700         5.59389
   C       -3.33391        14.49174         4.75275
   C       -3.70382        14.31658         3.31850
   C       -4.08166        13.13309         2.79899
   C       -4.19267        11.99126         3.62804
   C       -4.50556        10.66866         3.37850
   C       -4.80542         9.97761         2.18256
   C       -5.02823         8.63839         2.21590
   C       -4.00157        15.65905         5.44404
   C       -5.02407        16.36352         4.96799
   C       -5.63254        17.44899         5.71058
   C       -5.88088        17.45836         7.04576
   C       -6.58551        18.68258         7.37815
   C       -6.96985        19.03861         8.67379
   N       -7.28668        19.31631         9.74327
   C       -6.79532        19.40000         6.23086
   C       -6.19089        18.68558         5.13981
   C       -6.02129        19.11834         3.84281
   C       -6.73266        20.21667         3.13824
   C       -6.12121        20.37817         1.91987
   C       -5.05377        19.42610         1.80975
   C       -5.01757        18.64852         2.94686
   C       -4.19122        19.31524         0.71225
   N       -3.48234        19.21652        -0.18600
   C       -7.89467        20.86796         3.61833
   C       -8.49419        21.93520         3.02162
   C       -9.62771        22.57834         3.56307
   C      -10.27184        22.37871         4.79327
   C      -11.39996        23.25268         4.97596
   N      -12.15085        23.19537         6.10070
   C      -11.77362        22.32656         6.99171
   C      -10.63477        21.48195         6.84240
   C      -10.23774        20.52305         7.92090
   C      -10.38340        19.07539         7.44959
   N       -9.90498        21.51024         5.75226
   C      -11.59604        24.10123         3.90734
   S      -10.42836        23.85088         2.69118
   H       -7.47193        -0.99203        -2.69458
   H       -8.85488         2.48916         1.88292
   H      -11.03029        -0.35524         0.72777
   H      -11.03430         1.16129         1.65804
   H       -9.43294        -1.35526         2.34121
   H      -10.87232        -0.78359         3.18860
   H       -9.37271         0.14714         3.26041
   H       -3.80009         2.87783        -2.98296
   H       -3.26053         5.30786         0.54637
   H       -6.08790         3.87365         4.58034
   H       -5.23995         1.02778         1.45274
   H       -5.14647         6.01311         1.42738
   H       -5.18096         6.05406         4.48710
   H       -4.72027         8.02493         5.57252
   H       -3.26196        11.33756         7.49310
   H       -5.50475        12.11815         7.59910
   H       -5.21060        10.97536         8.92803
   H       -6.56103        10.20300         6.45565
   H       -7.31438        10.55326         7.87539
   H       -3.19164         9.41284         8.69560
   H       -2.63561         8.97159         7.07022
   H       -5.40228         8.51039         7.84316
   H       -4.21037         7.40434         8.15176
   H       -3.30681        13.38750         6.64779
   H       -2.25086        14.71400         4.77816
   H       -3.60376        15.18944         2.69097
   H       -4.30500        13.04013         1.74624
   H       -4.84427        10.52249         1.25061
   H       -5.25503         8.11578         1.29955
   H       -3.58416        15.90803         6.41080
   H       -5.44643        16.13829         3.99788
   H       -5.64376        16.68908         7.75695
   H       -7.23557        20.37624         6.18209
   H       -6.38854        21.06879         1.14308
   H       -4.28024        17.90206         3.16885
   H       -8.35433        20.49164         4.51754
   H       -8.10597        22.34353         2.09883
   H      -12.37282        22.27387         7.89132
   H      -10.85203        20.68900         8.80654
   H       -9.19430        20.70022         8.18978
   H      -11.42410        18.84785         7.22797
   H      -10.03407        18.39842         8.22479
   H       -9.79372        18.91325         6.55066
   H      -12.36259        24.83938         3.78796
*
