# ORCA input file
# SCF done       -177.792664760868          0.000700290731
! CAM-B3LYP def2-SVP def2/J RIJCOSX Grid4 TightSCF
%maxcore 5000
%tddft
    Mode sTDDFT
    Ethresh 5.0
    maxcore 5000
end

%pal
  nprocs 6
  end
* xyz 0 1
   C        3.84889        -7.91425        -6.95382
   C        4.89409        -8.38390        -6.17290
   C        4.83716        -8.32528        -4.78709
   C        3.73492        -7.78636        -4.14151
   C        2.68446        -7.31270        -4.91105
   C        2.73506        -7.38071        -6.32325
   C        1.49554        -6.84636        -6.87123
   C        1.20339        -6.67303        -8.19505
   C        2.09673        -6.97651        -9.24685
   N        2.77037        -7.20906       -10.14577
   C       -0.00959        -6.16356        -8.71105
   N       -0.96658        -5.77164        -9.20829
   C        0.62040        -6.57559        -5.73169
   C        1.43657        -6.67653        -4.52586
   C        1.16858        -6.07261        -3.32740
   C        0.08570        -5.19279        -3.10898
   N       -0.72447        -4.40681        -2.90177
   C        2.01110        -6.16518        -2.19870
   N        2.65552        -6.22527        -1.25168
   C       -0.72664        -6.38731        -5.79574
   C       -1.65260        -6.53772        -4.73099
   C       -1.56503        -7.46858        -3.59010
   N       -2.62658        -7.49702        -2.84639
   C       -3.49017        -6.59044        -3.39231
   C       -2.90222        -5.98156        -4.58949
   C       -3.82338        -5.03590        -5.17378
   S       -3.55285        -4.08473        -6.49439
   C       -4.99080        -5.12963        -4.34612
   C       -4.75631        -6.08251        -3.25202
   N       -5.87335        -6.20402        -2.47006
   C       -6.76385        -5.43115        -3.00808
   C       -6.30151        -4.71388        -4.20681
   C       -7.07303        -3.84548        -5.00358
   N       -6.54006        -3.15620        -6.05083
   C       -7.51450        -2.45253        -6.67609
   C       -8.72549        -2.69206        -6.00044
   C       -8.44764        -3.54685        -4.95356
   C       -7.27854        -1.63473        -7.76961
   C       -7.08303        -0.90784        -8.72538
   C       -6.85497        -0.08479        -9.81660
   C       -5.70850         0.62594        -9.96864
   C       -5.43559         1.47018       -11.07296
   C       -6.13594         1.51086       -12.36913
   N       -5.65180         2.36554       -13.21621
   C       -4.60856         2.97317       -12.57340
   C       -4.44540         2.41732       -11.21991
   C       -3.39244         3.10803       -10.53000
   S       -2.97322         2.97054        -8.94081
   C       -2.87146         4.03513       -11.50380
   C       -3.66904         3.95182       -12.74634
   N       -3.25696         4.88964       -13.64455
   C       -2.30277         5.54392       -13.05976
   C       -1.98226         5.06651       -11.70280
   C       -1.03950         5.69642       -10.84697
   C       -0.35351         5.14327        -9.81206
   C        0.27048         5.90773        -8.72910
   C        0.62993         7.22576        -8.75341
   C        0.51071         8.08251        -9.86978
   N        0.45559         8.82764       -10.74113
   C        1.22529         7.90142        -7.66484
   N        1.70854         8.50923        -6.82046
   C        0.44188         4.98448        -7.61841
   C        0.13863         3.67553        -8.05819
   C        0.20033         2.60395        -7.18369
   C        0.56947         2.84554        -5.86919
   C        0.87739         4.12856        -5.43681
   C        0.81763         5.20952        -6.30249
   C       -0.20339         3.72925        -9.47124
   C       -0.10947         2.69365       -10.36060
   C        0.15336         1.36136        -9.97704
   N        0.35488         0.26269        -9.71562
   C       -0.21563         2.83823       -11.75823
   N       -0.25696         2.90792       -12.90330
   H        3.91019        -7.97272        -8.02790
   H        5.76348        -8.80501        -6.65393
   H        5.66042        -8.70459        -4.20159
   H        3.69799        -7.75125        -3.06470
   H       -1.17441        -6.17038        -6.75762
   H       -0.74118        -8.13209        -3.39088
   H       -7.74511        -5.34231        -2.57636
   H       -5.56060        -3.22576        -6.34014
   H       -9.67369        -2.26523        -6.26025
   H       -9.14566        -3.92964        -4.23612
   H       -7.65766        -0.01135       -10.53921
   H       -4.95299         0.58485        -9.19465
   H       -6.96867         0.88882       -12.64808
   H       -1.79384         6.35073       -13.55730
   H       -0.92986         6.76013       -11.01846
   H       -0.05213         1.60703        -7.50614
   H        0.61267         2.02274        -5.17212
   H        1.16173         4.29138        -4.40844
   H        1.04952         6.20049        -5.94794
*
