# ORCA input file
# SCF done       -241.453438218444          0.000402540886
! CAM-B3LYP def2-SVP def2/J RIJCOSX Grid4 TightSCF
%maxcore 5000
%tddft
    Mode sTDDFT
    Ethresh 5.0
    maxcore 5000
end

%pal
  nprocs 6
  end
* xyz 0 1
   C       -3.02480         5.71749        -8.47369
   C       -2.56754         6.40930        -9.55752
   C       -2.98423         6.16988       -10.88552
   N       -3.28448         6.01986       -11.98262
   C       -1.62004         7.45485        -9.49497
   N       -0.85298         8.30792        -9.51091
   C       -3.99541         4.63229        -8.47933
   C       -4.20957         4.18432        -7.14082
   C       -5.07503         3.16687        -6.85193
   C       -5.77904         2.53971        -7.90290
   C       -5.57196         2.98203        -9.24230
   C       -4.67048         4.03562        -9.51290
   C       -6.28159         2.34930       -10.28365
   C       -7.15334         1.32896       -10.01706
   C       -7.35583         0.89385        -8.69840
   C       -6.68361         1.48608        -7.66394
   C       -3.38224         4.97427        -6.22401
   O       -3.30121         4.89666        -5.01609
   C       -2.63147         5.93188        -7.08640
   C       -1.75706         6.80457        -6.56489
   C       -1.49484         6.86522        -5.12723
   C       -0.53664         6.06298        -4.50844
   C        0.25765         5.07168        -5.24339
   O        0.21206         4.82207        -6.41383
   S        1.35884         4.25855        -4.08962
   C        0.79178         5.24027        -2.68408
   O        1.28487         5.14983        -1.59888
   C       -0.28966         6.13012        -3.13514
   C       -0.98808         7.01034        -2.29663
   C       -1.92926         7.84069        -2.92162
   C       -2.17096         7.75990        -4.29714
   C       -3.22765         8.63608        -4.80961
   O       -3.60877         8.73468        -5.94061
   S       -3.89910         9.57341        -3.43962
   C       -2.78943         8.81964        -2.23511
   O       -2.80991         9.13481        -1.08002
   C       -0.76320         7.03263        -0.84630
   C       -0.35146         8.18652        -0.22790
   C       -0.16959         8.19692         1.16549
   C        0.15397         9.24074         2.03420
   C        0.16766        10.68327         1.66281
   C       -1.09013        11.33632         2.26826
   N       -2.23549        10.48026         2.01253
   C        1.46230        11.45230         2.00369
   N        1.61006        11.76456         3.41313
   C        0.20259         8.67446         3.35800
   C        0.52941         9.22901         4.54358
   C        0.39175         8.45983         5.80812
   C        0.02875         7.02277         5.63955
   C       -0.22108         6.46949         4.43269
   C       -0.15420         7.25884         3.26462
   C       -0.37462         6.97583         1.91570
   C       -0.78209         5.80750         1.24989
   C       -0.98234         5.84353        -0.10038
   C       -0.69921         9.20512         6.54536
   C       -0.50049         9.90647         7.65327
   C       -1.55667        10.67170         8.30802
   C       -1.87058        10.46798         9.65562
   C       -1.17903         9.50949        10.52674
   O       -0.30055         8.74808        10.24132
   S       -1.86759         9.63463        12.18785
   C       -3.05398        10.89664        11.72043
   O       -3.83082        11.40272        12.47895
   C       -2.88895        11.18200        10.29338
   C       -3.66706        12.12472         9.62307
   C       -3.34995        12.33783         8.27935
   C       -2.30431        11.65650         7.64315
   C       -2.00585        12.16593         6.29868
   O       -1.09269        11.89293         5.56996
   S       -3.22164        13.41762         5.86295
   C       -4.04133        13.33399         7.45567
   O       -4.99097        14.00422         7.74268
   C       -4.73998        12.83830        10.31335
   C       -4.59961        14.10669        10.72724
   C       -5.55366        14.97019        11.41413
   C       -6.81354        14.62633        11.81048
   C       -7.69862        15.49804        12.48255
   N       -8.45754        16.15955        13.03275
   C       -7.40400        13.36104        11.59687
   N       -7.94527        12.36077        11.44581
   C       -4.91177        16.26544        11.58845
   C       -3.59572        16.21560        11.03870
   C       -3.34021        14.87582        10.50202
   O       -2.32860        14.45164         9.98421
   C       -2.76673        17.30202        11.05257
   C       -3.22031        18.50896        11.62745
   C       -4.53209        18.56640        12.18298
   C       -5.36875        17.42828        12.15353
   C       -4.97350        19.77645        12.75695
   C       -4.16102        20.87712        12.78061
   C       -2.87069        20.81984        12.23186
   C       -2.41022        19.66122        11.66781
   H       -5.22014         2.84487        -5.83128
   H       -4.53442         4.34700       -10.53650
   H       -6.12232         2.68764       -11.29685
   H       -7.69225         0.85084       -10.82110
   H       -8.04724         0.08709        -8.50674
   H       -6.83562         1.15537        -6.64698
   H       -1.20890         7.50685        -7.17829
   H       -0.15260         9.07222        -0.81283
   H        0.06679        10.73325         0.57281
   H       -1.19861        12.35650         1.85977
   H       -0.98406        11.40594         3.35332
   H       -2.33057        10.25560         1.02714
   H       -3.09018        10.93296         2.31525
   H        1.47387        12.35681         1.37234
   H        2.31402        10.83119         1.71068
   H        0.91279        12.43885         3.70959
   H        2.52586        12.16161         3.58764
   H        0.85828        10.25783         4.60386
   H        1.31132         8.54080         6.40018
   H       -0.03826         6.44255         6.54719
   H       -0.47654         5.42318         4.34916
   H       -0.94623         4.89620         1.80449
   H       -1.32357         4.96425        -0.62561
   H       -1.67141         9.16253         6.07469
   H        0.45639         9.89747         8.15715
   H       -5.64671        12.27543        10.48973
   H       -1.77580        17.23947        10.62753
   H       -6.35661        17.50460        12.57951
   H       -5.96742        19.81601        13.17765
   H       -4.50806        21.79910        13.22224
   H       -2.24377        21.69844        12.25862
   H       -1.41789        19.61098        11.24409
*
