# ORCA input file
# SCF done       -169.060277858516          0.000301746909
! CAM-B3LYP def2-SVP def2/J RIJCOSX Grid4 TightSCF
%maxcore 5000
%tddft
    Mode sTDDFT
    Ethresh 5.0
    maxcore 5000
end

%pal
  nprocs 6
  end
* xyz 0 1
   C        0.29094        -8.87104         1.88268
   C       -0.31234        -9.08805         0.66831
   C       -0.78785       -10.30004         0.16105
   N       -1.17853       -11.29260        -0.26148
   S       -0.44838        -7.62746        -0.26015
   C        0.31490        -6.70670         0.99195
   C        0.64945        -7.52539         2.07280
   C        1.28249        -7.08468         3.25341
   N        1.78845        -6.86336         4.25755
   C        0.58656        -5.31117         0.94817
   N        1.20496        -4.77623         1.99189
   C        1.35610        -3.46967         1.70420
   C        0.80134        -3.14843         0.38741
   C        0.98317        -1.71946         0.09324
   O        0.66423        -1.09938        -0.90218
   C        1.65818        -1.21943         1.30431
   C        1.87091        -2.32130         2.26356
   N        2.48944        -1.87229         3.38022
   C        2.66821        -0.58851         3.18065
   C        2.17106        -0.11401         1.90381
   C        0.29131        -4.32687        -0.11605
   C       -0.37239        -4.58963        -1.34528
   C       -0.58113        -3.63674        -2.28368
   C       -1.23867        -3.80480        -3.54827
   C       -1.30842        -2.70817        -4.39132
   C       -1.92917        -2.80920        -5.64570
   C       -2.11384        -1.87690        -6.66885
   C       -1.67979        -0.45563        -6.72395
   C       -2.12376         0.35181        -5.48622
   N       -2.39334         1.71920        -5.88728
   C       -0.15298        -0.37047        -6.92908
   N        0.18678        -0.91864        -8.22894
   C       -2.79587        -2.56231        -7.73781
   C       -3.16262        -2.14320        -8.96519
   C       -3.88225        -3.04347        -9.90081
   C       -4.02679        -4.45886        -9.43243
   C       -3.65149        -4.85965        -8.19896
   C       -3.03165        -3.95048        -7.31681
   C       -2.50027        -4.08668        -6.04467
   C       -2.42858        -5.18847        -5.16551
   C       -1.81577        -5.04837        -3.96082
   C       -5.31635        -2.60007       -10.02826
   C       -6.01342        -2.66698       -11.17393
   C       -7.38971        -2.29778       -11.24448
   N       -8.03958        -1.79268       -10.20462
   C       -9.29184        -1.55142       -10.63203
   C       -9.46033        -1.93481       -12.04430
   C      -10.83822        -1.66740       -12.49303
   O      -11.32403        -1.86678       -13.58543
   C      -11.46430        -1.10415       -11.28579
   C      -10.48968        -1.05340       -10.17519
   N      -11.06143        -0.53889        -9.06111
   C      -12.30019        -0.27214        -9.40402
   C      -12.61871        -0.59977       -10.77682
   C       -8.24338        -2.41665       -12.45091
   C       -7.81698        -2.95412       -13.69992
   C       -8.61415        -3.07877       -14.78176
   C       -8.19502        -3.64152       -16.03259
   C       -9.04606        -3.72436       -17.12519
   C      -10.37379        -3.29497       -17.20332
   N      -11.46450        -2.95526       -17.30933
   S       -8.30203        -4.45317       -18.51545
   C       -6.84503        -4.65737       -17.65201
   C       -6.91117        -4.19390       -16.36348
   C       -5.79171        -4.29253       -15.51726
   N       -4.85208        -4.39709       -14.86597
   H        0.46897        -9.64694         2.60607
   H        3.14850         0.01602         3.93014
   H        2.21972         0.89772         1.55224
   H       -0.71354        -5.60097        -1.51038
   H       -0.21860        -2.63729        -2.08068
   H       -0.87373        -1.77388        -4.07164
   H       -2.14703         0.01874        -7.59072
   H       -1.36242         0.27256        -4.69465
   H       -3.05727        -0.06748        -5.10152
   H       -1.53809         2.19058        -6.16058
   H       -2.81193         2.24287        -5.12784
   H        0.34990        -0.87999        -6.09072
   H        0.15099         0.67939        -6.92516
   H        0.00515        -1.91689        -8.24893
   H        1.16761        -0.77180        -8.43670
   H       -2.97971        -1.13359        -9.30325
   H       -3.41075        -3.01376       -10.89047
   H       -4.49247        -5.14014       -10.12684
   H       -3.79040        -5.88505        -7.88875
   H       -2.86054        -6.13348        -5.45986
   H       -1.76294        -5.89352        -3.29264
   H       -5.81345        -2.28283        -9.12365
   H       -5.53597        -3.00515       -12.08358
   H      -12.98090         0.15348        -8.68719
   H      -13.57086        -0.45898       -11.24870
   H       -6.79044        -3.28271       -13.75248
   H       -9.64348        -2.74463       -14.73666
   H       -5.99654        -5.11173       -18.12675
*
