# ORCA input file
# SCF done       -211.584269989378          0.000708775354
! CAM-B3LYP def2-SVP def2/J RIJCOSX Grid4 TightSCF
%maxcore 5000
%tddft
    Mode sTDDFT
    Ethresh 5.0
    maxcore 5000
end

%pal
  nprocs 6
  end
* xyz 0 1
   C       -2.73657         0.45541        -3.36161
   C       -2.32370         1.70006        -3.80841
   C       -1.80645         2.60310        -2.87739
   C       -1.37467         3.88007        -3.31451
   N       -1.02628         4.90961        -3.67384
   C       -1.70338         2.27052        -1.51285
   C       -1.18134         3.21175        -0.59334
   N       -0.76172         3.96012         0.16504
   C       -2.11328         1.01293        -1.06841
   C       -2.61853         0.13039        -1.99897
   C       -3.09989        -1.25072        -1.76954
   O       -3.10660        -1.81621        -0.69782
   C       -3.50733        -1.75594        -3.09751
   C       -3.32250        -0.68717        -4.06469
   C       -3.67894        -0.68527        -5.38802
   C       -3.47846         0.40794        -6.25954
   N       -3.34309         1.25741        -7.01871
   C       -4.32076        -1.73552        -6.08012
   N       -4.85662        -2.52840        -6.71472
   C       -3.91159        -3.02455        -3.43350
   C       -4.20400        -4.14787        -2.64357
   C       -4.29573        -4.34179        -1.26732
   C       -4.65449        -5.63912        -0.94349
   C       -4.84165        -6.46765        -2.07969
   S       -4.58523        -5.63486        -3.53659
   C       -5.18989        -7.76067        -1.63624
   C       -5.22740        -7.76231        -0.22815
   C       -4.89895        -6.42715         0.25172
   C       -4.84913        -6.01699         1.55087
   C       -5.10889        -6.90497         2.61709
   N       -5.31923        -7.63053         3.47964
   C       -4.55426        -4.69000         1.93456
   N       -4.33389        -3.62026         2.28075
   C       -5.56552        -9.00076         0.30486
   C       -5.78784        -9.95141        -0.68099
   S       -5.57238        -9.28999        -2.29785
   C       -6.14883       -11.31502        -0.49618
   C       -6.34325       -12.17997        -1.55050
   C       -6.69458       -13.51822        -1.42567
   C       -6.89062       -14.13340        -0.11237
   C       -6.75244       -13.47399         1.05970
   S       -6.32776       -11.81859         1.17992
   C       -7.23037       -15.48762        -0.37985
   C       -7.24578       -15.71781        -1.75978
   C       -7.58971       -17.05662        -2.05549
   C       -7.81470       -17.78073        -0.92768
   S       -7.62388       -16.88276         0.53707
   C       -6.90884       -14.48935        -2.43433
   C       -6.78983       -14.22642        -3.81149
   C       -6.91969       -15.12460        -4.82971
   C       -6.77528       -14.78591        -6.19177
   C       -6.52902       -13.53812        -6.76137
   C       -6.44094       -13.59973        -8.14272
   C       -6.61762       -14.90275        -8.65618
   S       -6.89821       -16.04483        -7.41330
   C       -6.49550       -14.85494       -10.05858
   C       -6.24950       -13.51236       -10.44165
   C       -6.19700       -12.68815        -9.25168
   C       -5.93136       -11.35079        -9.18395
   C       -5.68687       -10.59566       -10.35030
   N       -5.49630       -10.00389       -11.31369
   C       -5.88119       -10.66223        -7.95490
   N       -5.84646       -10.11691        -6.94632
   C       -6.07973       -13.36142       -11.80714
   C       -6.18163       -14.56869       -12.49155
   S       -6.53607       -15.90809       -11.39351
   C       -6.09097       -14.82783       -13.86720
   C       -5.61100       -14.03440       -14.87485
   C       -6.02399       -14.34541       -16.26650
   O       -6.58805       -15.34176       -16.65460
   C       -5.64278       -13.15421       -17.06070
   C       -5.90751       -12.88145       -18.38541
   C       -5.47798       -11.65778       -18.90314
   C       -4.80317       -10.73782       -18.07814
   C       -4.53006       -11.02984       -16.73974
   C       -4.94680       -12.24921       -16.23594
   C       -4.78750       -12.84931       -14.90775
   C       -3.82263       -12.47883       -14.00579
   C       -3.50588       -13.21562       -12.84840
   N       -3.20061       -13.80043       -11.90861
   C       -2.95933       -11.37649       -14.18255
   N       -2.23025       -10.49656       -14.28215
   C       -4.39677        -9.49183       -18.61703
   N       -4.06931        -8.48310       -19.04766
   C       -5.73016       -11.33933       -20.25924
   N       -5.94527       -11.10223       -21.35874
   H       -2.38332         1.99397        -4.84389
   H       -2.03944         0.73593        -0.02771
   H       -4.02571        -3.21603        -4.49400
   H       -4.09608        -3.55709        -0.55979
   H       -5.64957        -9.21759         1.35439
   H       -6.20626       -11.76643        -2.54107
   H       -6.90084       -13.95046         2.01582
   H       -7.67623       -17.48240        -3.03768
   H       -8.08918       -18.81525        -0.85975
   H       -6.56013       -13.20280        -4.07143
   H       -7.12875       -16.16028        -4.61352
   H       -6.42348       -12.63678        -6.18733
   H       -5.93857       -12.41825       -12.30254
   H       -6.52524       -15.76391       -14.20641
   H       -6.43314       -13.59284       -19.00409
   H       -4.01796       -10.29955       -16.13323
*
