# ORCA input file
# SCF done       -163.206963977615          0.000678952408
! CAM-B3LYP def2-SVP def2/J RIJCOSX Grid4 TightSCF
%maxcore 5000
%tddft
    Mode sTDDFT
    Ethresh 5.0
    maxcore 5000
end

%pal
  nprocs 6
  end
* xyz 0 1
   C        0.30733        -0.79880        -0.51144
   C       -0.90220        -0.24885        -0.18997
   F       -1.90765        -1.04812         0.20988
   C       -1.14344         1.13018        -0.25973
   C       -0.13357         1.95862        -0.66302
   C        1.13411         1.44535        -1.00655
   C        1.35837         0.03934        -0.93204
   C        2.61686        -0.50099        -1.28436
   C        3.61648         0.33868        -1.69572
   C        3.39258         1.74516        -1.74927
   C        2.18599         2.29287        -1.42021
   C        4.63110         2.41962        -2.18065
   O        4.80605         3.59709        -2.39029
   C        5.65966         1.33878        -2.25075
   C        4.97451         0.06690        -2.15456
   C        5.42653        -1.13843        -2.61855
   C        6.64764        -1.31000        -3.30099
   N        7.61707        -1.50309        -3.88471
   C        4.70017        -2.34250        -2.52220
   N        4.16989        -3.35762        -2.44409
   C        6.97129         1.68067        -2.27604
   C        8.12988         0.88362        -2.01399
   C        9.37089         1.23399        -2.54607
   N       10.48886         0.54505        -2.41513
   C       10.54505        -0.56530        -1.70229
   C        9.37366        -1.00620        -1.01866
   C        8.15007        -0.26879        -1.18881
   N        7.15074        -0.78819        -0.47576
   S        7.69093        -2.08398         0.30919
   N        9.20990        -2.04466        -0.20167
   C       11.79978        -1.27891        -1.66839
   C       12.07618        -2.30975        -0.77377
   N       13.20111        -3.00406        -0.72555
   C       14.19881        -2.77419        -1.55941
   C       14.07368        -1.73090        -2.52089
   C       12.85212        -0.96816        -2.56842
   N       12.88546        -0.03937        -3.51942
   S       14.29939        -0.10466        -4.26532
   N       14.95224        -1.31649        -3.43323
   C       15.36519        -3.62196        -1.45564
   C       16.30829        -3.74610        -2.47203
   N       17.35242        -4.56053        -2.45573
   C       17.59407        -5.34692        -1.41737
   C       16.73293        -5.30858        -0.28712
   C       15.59449        -4.42971        -0.31146
   N       14.90165        -4.49398         0.82248
   S       15.59792        -5.55216         1.80284
   N       16.82173        -5.98716         0.85444
   C       18.72312        -6.21201        -1.50147
   C       19.19401        -7.12518        -0.57738
   C       20.32362        -7.79081        -1.05017
   C       20.70165        -7.37284        -2.33945
   S       19.67768        -6.16667        -2.96983
   C       21.85477        -8.11519        -2.72567
   C       22.19667        -8.99096        -1.68849
   C       21.25032        -8.81908        -0.59944
   C       21.23139        -9.48020         0.59374
   C       22.18649       -10.46544         0.92132
   N       22.96071       -11.26665         1.19266
   C       20.25811        -9.22733         1.58378
   N       19.47548        -9.03339         2.39913
   C       23.33052        -9.76749        -1.99164
   C       23.81624        -9.47046        -3.22962
   S       22.91483        -8.24552        -4.05718
   H        0.45611        -1.86552        -0.44972
   H       -2.11858         1.50655         0.00577
   H       -0.29529         3.02427        -0.72439
   H        2.76232        -1.56717        -1.21215
   H        2.03471         3.36053        -1.47567
   H        7.16595         2.72982        -2.48026
   H        9.45598         2.11864        -3.16361
   H       11.33457        -2.59980        -0.04353
   H       16.20683        -3.15650        -3.37162
   H       18.71919        -7.27403         0.37540
   H       23.76586       -10.50265        -1.33989
   H       24.66521        -9.90204        -3.72106
*
