# ORCA input file
# SCF done       -186.235396164973          0.000517390433
! CAM-B3LYP def2-SVP def2/J RIJCOSX Grid4 TightSCF
%maxcore 5000
%tddft
    Mode sTDDFT
    Ethresh 5.0
    maxcore 5000
end

%pal
  nprocs 6
  end
* xyz 0 1
   C       -1.32370         2.95298         2.99399
   C       -0.08970         3.28609         3.47741
   F        0.17736         4.54939         3.82824
   C        0.91655         2.30718         3.61292
   F        2.11565         2.66309         4.08937
   C        0.67460         1.00877         3.26155
   C       -0.58675         0.63402         2.75843
   C       -1.60597         1.62218         2.62402
   C       -2.88082         1.26862         2.12858
   C       -3.12980        -0.03345         1.77858
   C       -2.10275        -1.01112         1.90428
   C       -0.86109        -0.69834         2.38046
   C       -2.59961        -2.31824         1.44449
   O       -1.96724        -3.34577         1.35021
   C       -4.00817        -2.07573         1.00862
   C       -4.33220        -0.67958         1.26961
   C       -5.56912        -0.10955         1.15753
   C       -6.73968        -0.80197         0.77501
   N       -7.72948        -1.31252         0.49948
   C       -5.84398         1.24360         1.45418
   N       -6.11957         2.33562         1.67128
   C       -4.75817        -2.96352         0.31625
   C       -4.46591        -4.36892         0.19802
   C       -4.64774        -5.08465        -0.97430
   C       -5.05564        -4.55511        -2.19829
   N       -5.39757        -4.10216        -3.19632
   S       -4.22534        -6.75786        -0.80069
   C       -3.85543        -6.53536         0.88312
   C       -4.02808        -5.20780         1.26102
   C       -3.89730        -4.74234         2.57686
   N       -3.82895        -4.36286         3.65919
   C       -3.44794        -7.64270         1.66959
   N       -3.06424        -7.53432         2.98953
   C       -2.75785        -8.77566         3.44300
   C       -2.33612        -9.49183         4.55889
   C       -2.28803       -10.83291         4.16164
   N       -2.66395       -10.93760         2.83775
   C       -2.95439        -9.69482         2.37748
   C       -3.38377        -8.98224         1.26392
   C       -1.94287       -11.93509         4.98579
   C       -1.96281       -13.23495         4.61071
   C       -1.65801       -14.35054         5.45124
   C       -1.77616       -15.65989         4.98424
   C       -2.18765       -16.03060         3.70562
   N       -2.53493       -16.30914         2.64640
   S       -1.37700       -16.85541         6.16806
   C       -1.03606       -15.62166         7.33921
   C       -1.24758       -14.35059         6.81556
   C       -1.02872       -13.21948         7.62035
   N       -0.84967       -12.33294         8.32649
   C       -0.70879       -15.90766         8.69522
   C       -0.16786       -17.02980         9.22593
   C       -0.34624       -17.30753        10.68627
   O       -0.69532       -16.52104        11.53052
   C       -0.07614       -18.75083        10.83139
   C       -0.23669       -19.54436        11.93124
   C        0.05842       -20.92209        11.83224
   C        0.51247       -21.45473        10.58963
   C        0.79585       -22.83238        10.49731
   C        0.63860       -23.64234        11.58687
   C        0.19122       -23.11418        12.81575
   C       -0.09248       -21.78273        12.93723
   F        0.04498       -23.93160        13.86478
   F        0.90772       -24.94949        11.49770
   C        0.67743       -20.60828         9.46989
   C        0.39225       -19.27439         9.59146
   C        0.49746       -18.17698         8.63595
   C        1.30740       -18.15395         7.53375
   C        1.56986       -16.97702         6.80063
   N        1.81856       -16.02435         6.21158
   C        2.02697       -19.27522         7.06962
   N        2.61557       -20.16659         6.65195
   H       -2.08280         3.71362         2.89869
   H        1.45495         0.27205         3.37092
   H       -3.62952         2.03841         2.03320
   H       -0.10136        -1.45980         2.46961
   H       -5.63746        -2.62640        -0.21919
   H       -3.01919        -6.67241         3.50820
   H       -2.09606        -9.12495         5.53603
   H       -2.70159       -11.79336         2.31226
   H       -3.62993        -9.34859         0.28706
   H       -1.66288       -11.67097         5.99435
   H       -2.24571       -13.50817         3.60201
   H       -1.00651       -15.14793         9.41382
   H       -0.58521       -19.12627        12.86324
   H        1.14259       -23.25247         9.56613
   H       -0.43388       -21.39410        13.88384
   H        1.01336       -21.03608         8.53851
*
