# ORCA input file
# SCF done       -222.969322109317          0.000490405010
! CAM-B3LYP def2-SVP def2/J RIJCOSX Grid4 TightSCF
%maxcore 5000
%tddft
    Mode sTDDFT
    Ethresh 5.0
    maxcore 5000
end

%pal
  nprocs 6
  end
* xyz 0 1
   C       -6.50482       -10.27783        15.51965
   C       -6.41730        -9.14690        16.28184
   F       -6.63410        -9.20613        17.60255
   C       -6.09905        -7.90719        15.69196
   F       -6.02093        -6.81400        16.46343
   C       -5.87188        -7.81585        14.34739
   C       -5.95481        -8.96329        13.53492
   C       -6.27616       -10.21775        14.13004
   C       -6.36349       -11.38283        13.33438
   C       -6.13310       -11.29629        11.98615
   C       -5.81798       -10.03898        11.39957
   C       -5.73014        -8.89672        12.14186
   C       -5.63788       -10.20130         9.94253
   O       -5.42616        -9.31801         9.14229
   C       -5.88692       -11.64313         9.67308
   C       -6.14258       -12.30921        10.93633
   C       -6.27540       -13.65912        11.12530
   C       -6.17599       -14.62661        10.10242
   N       -6.08481       -15.47140         9.33053
   C       -6.49156       -14.26231        12.38182
   N       -6.67423       -14.80564        13.37642
   C       -6.05213       -12.17009         8.43239
   C       -5.68001       -11.52620         7.19986
   C       -6.56040       -11.59724         6.11075
   F       -7.71833       -12.26719         6.33422
   C       -6.31782       -10.97910         4.89824
   O       -7.10967       -10.97672         3.80016
   C       -8.36845       -11.62080         3.81846
   C       -5.08572       -10.28404         4.75018
   C       -4.19747       -10.24131         5.83119
   C       -4.44151       -10.85872         7.05350
   O       -3.59796       -10.96082         8.09500
   C       -2.34098       -10.31532         8.08509
   F       -3.09086        -9.47519         5.67945
   C       -4.85427        -9.61014         3.50467
   C       -3.69216        -9.39443         2.82669
   C       -3.60364        -8.64371         1.61429
   C       -2.36495        -8.60265         1.06824
   C       -1.39319        -9.33859         1.79260
   S       -2.11604       -10.06968         3.20834
   C       -0.06225        -9.48647         1.47853
   C        0.90736       -10.24924         2.17451
   C        2.13850       -10.20733         1.60881
   C        2.23132        -9.38481         0.44513
   S        0.66799        -8.68169         0.10239
   C        3.36935        -9.28159        -0.30548
   C        3.65554        -8.52475        -1.48194
   C        4.67861        -8.98908        -2.32756
   F        5.30242       -10.12850        -1.93315
   C        5.03866        -8.38607        -3.52107
   O        6.01058        -8.78100        -4.37059
   C        6.80939        -9.91742        -4.10250
   C        4.35377        -7.19673        -3.88533
   C        3.39252        -6.68292        -2.99551
   C        3.01235        -7.30354        -1.82105
   O        2.14271        -6.83261        -0.90135
   C        1.36383        -5.67856        -1.14603
   F        2.81058        -5.51761        -3.36654
   C        4.66508        -6.42134        -5.04494
   C        5.20565        -6.74149        -6.25235
   C        5.76437        -5.63249        -7.07884
   O        5.63600        -4.44644        -6.88208
   C        6.54249        -6.29224        -8.14658
   C        7.33967        -5.72890        -9.10010
   C        8.01822        -6.56907       -10.01164
   C        7.85805        -7.98148        -9.91137
   C        8.54353        -8.81402       -10.81864
   C        9.34652        -8.27024       -11.78162
   C        9.50223        -6.87346       -11.88102
   C        8.85251        -6.03931       -11.01493
   F       10.29678        -6.36771       -12.83486
   F        9.99651        -9.06442       -12.64342
   C        7.01832        -8.53502        -8.91720
   C        6.36464        -7.70134        -8.04972
   C        5.43257        -7.97879        -6.95937
   C        4.75316        -9.15660        -6.78145
   C        3.69486        -9.31187        -5.86661
   N        2.81847        -9.47058        -5.14213
   C        4.99830       -10.32860        -7.52346
   N        5.17617       -11.31775        -8.07889
   H       -6.74842       -11.21902        15.98727
   H       -5.62998        -6.85938        13.91103
   H       -6.61667       -12.31560        13.81190
   H       -5.49162        -7.95462        11.67194
   H       -6.56170       -13.12034         8.32697
   H       -8.26995       -12.69421         3.99378
   H       -8.78446       -11.45416         2.82604
   H       -9.03402       -11.18795         4.56854
   H       -1.71168       -10.66670         7.26396
   H       -1.88005       -10.58306         9.03495
   H       -2.45092        -9.23070         8.02811
   H       -5.75705        -9.27564         3.00980
   H       -4.46972        -8.15332         1.20696
   H       -2.10094        -8.08073         0.16521
   H        0.65027       -10.80007         3.06241
   H        3.00024       -10.73072         1.98369
   H        4.17138        -9.93778         0.01096
   H        6.21173       -10.83070        -4.06449
   H        7.37046        -9.80724        -3.17247
   H        7.50486        -9.97579        -4.93913
   H        0.70780        -5.59648        -0.28063
   H        0.76042        -5.78282        -2.04971
   H        1.98368        -4.78251        -1.21898
   H        4.48174        -5.35491        -4.93277
   H        7.45250        -4.65703        -9.15842
   H        8.43301        -9.88552       -10.75908
   H        8.98210        -4.97205       -11.10365
   H        6.91964        -9.60747        -8.86259
*
