# ORCA input file
# SCF done       -218.738245891515          0.000878980771
! CAM-B3LYP def2-SVP def2/J RIJCOSX Grid4 TightSCF
%maxcore 5000
%tddft
    Mode sTDDFT
    Ethresh 5.0
    maxcore 5000
end

%pal
  nprocs 6
  end
* xyz 0 1
   C       -2.95089         2.94305         0.15161
   C       -3.32729         3.85283        -0.79613
   F       -3.10035         5.15889        -0.60357
   C       -3.95730         3.43214        -1.98472
   F       -4.31657         4.34700        -2.89537
   C       -4.20159         2.10639        -2.20949
   C       -3.82545         1.14456        -1.25190
   C       -3.18820         1.56827        -0.04959
   C       -2.79880         0.62078         0.92485
   C       -3.03799        -0.70995         0.70222
   C       -3.67934        -1.12167        -0.49760
   C       -4.06793        -0.23173        -1.45670
   C       -3.83447        -2.58926        -0.49929
   O       -4.36884        -3.24416        -1.36851
   C       -3.27619        -3.05097         0.79424
   C       -2.74532        -1.89801         1.49852
   C       -2.01680        -1.90935         2.66035
   C       -1.63666        -3.06213         3.37947
   N       -1.26917        -3.95215         4.00567
   C       -1.50932        -0.74947         3.28299
   N       -1.07436         0.15434         3.84128
   C       -3.37617        -4.30546         1.33728
   C       -3.74308        -5.52250         0.73504
   C       -3.84616        -5.90529        -0.59773
   C       -4.18175        -7.24333        -0.73420
   C       -4.34959        -7.90686         0.50497
   S       -4.06133        -6.88147         1.82806
   C       -4.71588        -9.24808         0.24881
   C       -4.77239        -9.44081        -1.14383
   C       -4.42719        -8.19134        -1.80655
   C       -4.33646        -7.97500        -3.14938
   C       -4.60704        -8.99629        -4.08534
   N       -4.83001        -9.82588        -4.84485
   C       -3.94392        -6.73783        -3.70605
   N       -3.60833        -5.75515        -4.19088
   C       -5.12881       -10.73825        -1.49872
   C       -5.34995       -11.53690        -0.38833
   S       -5.10699       -10.67029         1.11827
   C       -5.73697       -12.89942        -0.38826
   C       -6.00585       -13.71431         0.69680
   C       -6.37354       -15.00095         0.30424
   C       -6.37956       -15.16406        -1.09277
   S       -5.93722       -13.74077        -1.92159
   C       -6.76975       -16.49124        -1.39211
   C       -7.01551       -17.17265        -0.18857
   C       -6.77189       -16.25824         0.91878
   C       -6.89369       -16.52250         2.25050
   C       -7.29153       -17.78757         2.73364
   N       -7.61596       -18.81393         3.12751
   C       -6.62893       -15.54419         3.23269
   N       -6.41331       -14.74714         4.02795
   C       -7.41751       -18.49398        -0.38509
   C       -7.47703       -18.82312        -1.72746
   S       -7.02759       -17.47542        -2.76341
   C       -7.84802       -20.06139        -2.30933
   C       -7.87616       -20.36473        -3.65672
   C       -8.29893       -21.67535        -3.87704
   C       -8.59997       -22.38007        -2.68507
   S       -8.34740       -21.40226        -1.28628
   C       -9.00875       -23.65456        -3.06622
   C       -8.94267       -23.69014        -4.48739
   N       -8.50240       -22.48147        -4.96014
   C       -8.32604       -22.11569        -6.33837
   C       -9.32324       -24.90319        -5.03887
   C       -9.68292       -25.82248        -4.06229
   S       -9.55298       -25.14921        -2.42409
   C      -10.13908       -27.14883        -4.14359
   C      -10.28322       -28.00039        -5.21014
   C      -10.80129       -29.35435        -5.08152
   C      -11.44082       -29.89983        -3.99797
   C      -11.92789       -31.22366        -3.95569
   N      -12.34464       -32.28881        -3.85494
   C      -11.75288       -29.23964        -2.79015
   N      -12.06863       -28.78613        -1.78307
   C      -10.59099       -30.03823        -6.35260
   C      -10.04873       -29.11259        -7.27445
   C       -9.87148       -27.80453        -6.61644
   O       -9.45693       -26.80138        -7.16529
   C       -9.74778       -29.44426        -8.57307
   C       -9.98775       -30.75982        -8.98161
   C      -10.52309       -31.68230        -8.05141
   C      -10.83154       -31.34368        -6.73953
   S      -10.73454       -33.25436        -8.76089
   C      -10.11179       -32.65835       -10.27660
   C       -9.76194       -31.35031       -10.25498
  Br       -9.97993       -33.81886       -11.74405
   H       -2.46837         3.28212         1.05500
   H       -4.68424         1.79969        -3.12419
   H       -2.32436         0.97507         1.82549
   H       -4.55095        -0.57527        -2.35875
   H       -3.15733        -4.39416         2.39521
   H       -3.68592        -5.22383        -1.41233
   H       -5.23125       -11.10104        -2.50564
   H       -5.93586       -13.37097         1.71346
   H       -7.65889       -19.19479         0.39370
   H       -7.60356       -19.65893        -4.42033
   H       -8.29186       -23.01878        -6.94398
   H       -7.39086       -21.56771        -6.45982
   H       -9.15086       -21.48672        -6.68457
   H       -9.34720       -25.14287        -6.08533
   H      -10.40104       -27.55993        -3.17566
   H       -9.33894       -28.71182        -9.25136
   H      -11.23449       -32.08545        -6.07099
   H       -9.36072       -30.82241       -11.10071
*
