# ORCA input file
# SCF done       -203.684141779803          0.000833379432
! CAM-B3LYP def2-SVP def2/J RIJCOSX Grid4 TightSCF
%maxcore 5000
%tddft
    Mode sTDDFT
    Ethresh 5.0
    maxcore 5000
end

%pal
  nprocs 6
  end
* xyz 0 1
   C       -9.39927        -8.84397         9.90224
   C       -8.65072        -9.14918        11.00430
   F       -9.24935        -9.52659        12.14125
   C       -7.24440        -9.07038        10.95989
   F       -6.53567        -9.37341        12.05549
   C       -6.60569        -8.68813         9.81325
   C       -7.34906        -8.36673         8.66148
   C       -8.77111        -8.44576         8.70528
   C       -9.53893        -8.12504         7.56213
   C       -8.90299        -7.73557         6.41330
   C       -7.48307        -7.65517         6.38017
   C       -6.71497        -7.96174         7.46498
   C       -7.05509        -7.19474         5.04400
   O       -5.90814        -7.04407         4.66948
   C       -8.29046        -6.93843         4.29119
   C       -9.41826        -7.33620         5.10668
   C      -10.73633        -7.40149         4.72675
   C      -11.78076        -7.85220         5.56095
   N      -12.67794        -8.20747         6.18281
   C      -11.24122        -7.05181         3.46251
   N      -11.73445        -6.78269         2.45862
   C       -8.38262        -6.34355         3.05723
   C       -7.39508        -5.99563         2.12911
   S       -5.69159        -6.37530         2.27228
   C       -5.40029        -5.73803         0.72400
   C       -6.51798        -5.22594         0.10818
   C       -7.66084        -5.36786         0.90192
   C       -8.98949        -4.84844         0.45909
   C       -9.05074        -4.74210        -1.07156
   C       -7.85117        -3.92060        -1.55149
   C       -6.53069        -4.63318        -1.26459
   C       -9.17061        -6.10729        -1.72414
   C       -8.67500        -6.42395        -2.91175
   C       -9.99115        -7.09618        -1.00443
   S       -9.29800        -8.19794         0.15241
   C      -10.84393        -8.89403         0.45607
   C      -11.82733        -8.32332        -0.28363
   C      -11.33405        -7.29359        -1.13465
   C      -12.19812        -6.57288        -2.12571
   C      -13.69955        -6.77673        -1.88374
   C      -13.98189        -8.23963        -1.50682
   C      -13.28413        -8.64663        -0.21197
   C      -14.28885        -5.81177        -0.87175
   C      -15.58540        -5.48373        -0.96324
   C      -13.42590        -5.31516         0.16445
   C      -13.54430        -4.17471         0.89520
   C      -12.62161        -3.77315         1.90540
   C      -12.89677        -2.57837         2.48170
   C      -14.05660        -1.94616         1.96294
   S      -14.78518        -2.92974         0.72281
   C      -14.58690        -0.73469         2.36320
   C      -14.10120         0.11855         3.37758
   C      -14.84860         1.24488         3.55120
   C      -15.95693         1.34178         2.68002
   S      -16.02941        -0.05324         1.63695
   C      -16.87647         2.37451         2.65433
   C      -17.92686         2.46418         1.75312
   C      -18.90007         3.44464         1.70272
   C      -19.63426         3.68392         0.44693
   O      -19.64866         2.98846        -0.54555
   C      -20.31220         4.99318         0.63686
   C      -20.07096         5.45190         1.94549
   C      -20.55860         6.68155         2.34716
   C      -21.29370         7.44388         1.43889
   C      -21.54752         6.97101         0.14144
   C      -21.04652         5.72885        -0.26552
   C      -22.28602         7.72127        -0.80744
   N      -22.85077         8.23270        -1.66341
   C      -21.83090         8.77032         1.83588
   O      -22.60521         9.41655         1.17917
   O      -21.36190         9.18717         3.01760
   C      -19.29777         4.43313         2.66346
   C      -19.18492         4.36129         4.03322
   C      -18.70801         3.23390         4.73083
   N      -18.37151         2.33176         5.35696
   C      -19.63680         5.36145         4.91572
   N      -19.96384         6.14935         5.68497
   H      -10.47493        -8.91013         9.95275
   H       -5.52851        -8.63260         9.79599
   H      -10.61291        -8.18898         7.62948
   H       -5.63907        -7.89303         7.41315
   H       -9.38487        -6.10151         2.72949
   H       -4.40491        -5.74844         0.32228
   H       -9.13718        -3.85129         0.88910
   H       -9.80297        -5.47967         0.81895
   H       -9.96855        -4.19301        -1.32388
   H       -7.86628        -2.96375        -1.02457
   H       -7.93437        -3.70679        -2.61707
   H       -5.69658        -3.93691        -1.37690
   H       -6.37778        -5.44238        -1.98318
   H       -8.11182        -5.73864        -3.51950
   H       -8.82673        -7.40635        -3.32615
   H      -10.92786        -9.68542         1.17396
   H      -11.95273        -6.95811        -3.12103
   H      -11.96184        -5.50583        -2.13452
   H      -14.21481        -6.58173        -2.83099
   H      -13.62891        -8.87792        -2.32033
   H      -15.05821        -8.38684        -1.40313
   H      -13.42480        -9.71325        -0.02608
   H      -13.72515        -8.10665         0.63173
   H      -16.20383        -5.87311        -1.75409
   H      -16.07811        -4.85896        -0.24028
   H      -12.55153        -5.91039         0.38678
   H      -11.79601        -4.40810         2.17070
   H      -12.30489        -2.12680         3.25713
   H      -13.22369        -0.11707         3.95205
   H      -14.64416         2.00681         4.28177
   H      -16.72118         3.16510         3.37440
   H      -17.95045         1.75113         0.93460
   H      -20.38150         7.07395         3.33503
   H      -21.22886         5.35881        -1.26309
   H      -21.74767        10.04763         3.24465
*
