# ORCA input file
# SCF done       -159.946510132828          0.000304408631
! CAM-B3LYP def2-SVP def2/J RIJCOSX Grid4 TightSCF
%maxcore 5000
%tddft
    Mode sTDDFT
    Ethresh 5.0
    maxcore 5000
end

%pal
  nprocs 6
  end
* xyz 0 1
   C        3.87862         0.99310        -0.51054
   C        3.11547         0.55394         0.53663
   C        2.72731        -0.78881         0.66795
   C        3.08867        -1.75682        -0.25159
   C        3.88390        -1.32738        -1.35344
   C        4.27935         0.05415        -1.47922
   N        5.01975         0.31430        -2.55251
  Se        5.26105        -1.15830        -3.45923
   N        4.32077        -2.11242        -2.32712
   C        2.70012        -3.13466        -0.13622
   C        1.93809        -3.71822         0.85863
   C        1.75074        -5.08468         0.64672
   C        2.38152        -5.53879        -0.52515
   S        3.19923        -4.29170        -1.35606
   C        2.12794        -6.92753        -0.65454
   C        1.34048        -7.35053         0.42802
   C        1.07955        -6.20144         1.28526
   C        0.35530        -6.18522         2.44210
   C       -0.25394        -7.34499         2.96337
   N       -0.75236        -8.28626         3.38906
   C        0.16897        -5.00553         3.19164
   N        0.01476        -4.04749         3.80332
   C        1.03097        -8.70882         0.38127
   C        1.57371        -9.32955        -0.73029
   S        2.49002        -8.20204        -1.72990
   C        1.46806       -10.69814        -1.10981
   C        2.03946       -11.18817        -2.25963
   C        1.97454       -12.51064        -2.69230
   C        1.16241       -13.49230        -1.95776
   C        0.52680       -13.23420        -0.79465
   S        0.55767       -11.71474         0.00168
   C        1.21252       -14.68299        -2.73328
   C        2.00080       -14.47110        -3.86360
   C        2.09166       -15.62444        -4.67353
   C        1.38249       -16.65800        -4.14934
   S        0.58351       -16.28073        -2.65949
   C        2.50995       -13.12350        -3.84273
   C        3.38563       -12.62309        -4.83474
   C        4.17220       -11.51678        -4.76651
   C        5.01080       -11.06651        -5.81154
   C        5.84743        -9.95966        -5.77104
   C        6.53880        -9.77637        -6.96492
   C        6.23229       -10.74775        -7.93297
   S        5.08928       -11.88631        -7.36835
   C        6.98105       -10.47742        -9.10487
   C        7.76476        -9.33134        -8.87407
   C        7.51325        -8.85127        -7.52968
   C        8.06210        -7.75991        -6.91949
   C        9.00206        -6.93352        -7.56821
   N        9.76633        -6.25774        -8.09291
   C        7.72265        -7.38214        -5.60464
   N        7.44703        -7.06674        -4.53659
   C        8.54017        -8.98079        -9.97965
   C        8.35420        -9.84105       -11.04497
   S        7.19753       -11.10997       -10.67607
   C        8.97830        -9.78762       -12.33619
   C        9.92729        -8.84014       -12.67714
   C       10.52533        -8.79791       -13.94606
   C       10.20810        -9.69216       -14.93182
   C        9.24937       -10.68156       -14.64586
   C        8.63034       -10.73477       -13.34315
   N        7.74633       -11.71020       -13.19657
  Se        7.64078       -12.62101       -14.69296
   N        8.83132       -11.62084       -15.48860
   H        4.17876         2.02276        -0.61458
   H        2.79511         1.25392         1.29366
   H        2.12602        -1.06452         1.51959
   H        1.53758        -3.17779         1.69609
   H        0.43948        -9.23158         1.11127
   H        2.54920       -10.46539        -2.88034
   H       -0.05009       -13.98042        -0.27145
   H        2.64605       -15.69216        -5.59197
   H        1.27114       -17.64741        -4.54804
   H        3.45291       -13.22639        -5.73335
   H        4.22241       -10.92715        -3.86355
   H        5.93301        -9.32993        -4.90399
   H        9.20452        -8.13706       -10.00554
   H       10.22633        -8.10392       -11.94819
   H       11.25888        -8.02946       -14.13900
   H       10.66439        -9.66266       -15.90751
*
