# ORCA input file
# SCF done       -201.921206593175          0.000671540049
! CAM-B3LYP def2-SVP def2/J RIJCOSX Grid4 TightSCF
%maxcore 5000
%tddft
    Mode sTDDFT
    Ethresh 5.0
    maxcore 5000
end

%pal
  nprocs 6
  end
* xyz 0 1
   C        2.29225        -0.93954        -3.41661
   O        1.75498        -2.10882        -3.10806
   C        1.12696        -1.97980        -1.91168
   C        1.27338        -0.67301        -1.44551
   C        2.04139        -0.00049        -2.44281
   C        2.53791         1.39852        -2.53587
   F        3.23515         1.58967        -3.66484
   F        1.55582         2.31967        -2.54457
   F        3.36039         1.74508        -1.52752
   O        0.73902        -0.29289        -0.27813
   C        0.89928         1.03745         0.17758
   C        0.45866        -3.07021        -1.28922
   C        0.39752        -4.31264        -1.81929
   C       -0.23584        -5.42826        -1.20831
   C       -0.91792        -5.50619        -0.00589
   C       -1.36944        -6.79859         0.25978
   C       -1.03125        -7.71735        -0.74869
   S       -0.16438        -6.98480        -2.02241
   C       -1.50824        -8.99824        -0.37220
   C       -2.14974        -8.89064         0.87326
   C       -2.08858        -7.50479         1.30971
   C       -2.59021        -6.98088         2.46485
   C       -3.26611        -7.77383         3.41590
   N       -3.81560        -8.41684         4.19016
   C       -2.46379        -5.61340         2.78687
   N       -2.36169        -4.50255         3.05212
   C       -2.63259       -10.11234         1.34314
   C       -2.36064       -11.14709         0.46797
   S       -1.50246       -10.59859        -0.96724
   C       -2.66055       -12.52285         0.63024
   C       -2.34863       -13.56073        -0.22873
   C       -2.75771       -14.79540         0.27461
   C       -3.39000       -14.69454         1.52468
   S       -3.48518       -13.08089         2.07953
   C       -3.73796       -15.99693         1.96095
   C       -3.32405       -16.92386         0.98905
   C       -2.70303       -16.19835        -0.10844
   C       -2.17809       -16.71798        -1.25444
   C       -2.18342       -18.10293        -1.52537
   N       -2.18806       -19.22675        -1.75125
   C       -1.59593       -15.90304        -2.24830
   N       -1.12524       -15.23724        -3.05443
   C       -3.59694       -18.24537         1.34376
   C       -4.21698       -18.33141         2.57805
   S       -4.47175       -16.75082         3.30467
   C       -4.61410       -19.50622         3.26918
   C       -4.39433       -20.82080         2.89458
   C       -4.89940       -21.72039         3.83373
   C       -5.51350       -21.08789         4.92589
   S       -5.46595       -19.38612         4.80080
   C       -5.98014       -22.08179         5.82411
   C       -5.65732       -23.34438         5.30062
   C       -4.97366       -23.16254         4.03091
   C       -4.50077       -24.13202         3.19782
   C       -4.64269       -25.50850         3.47715
   N       -4.75971       -26.62981         3.68415
   C       -3.84150       -23.82553         1.98799
   N       -3.30533       -23.58291         1.00415
   C       -6.06661       -24.39676         6.12375
   C       -6.68868       -23.93678         7.26514
   S       -6.79725       -22.18418         7.31735
   C       -7.29176       -24.65782         8.34031
   O       -8.27888       -24.04448         9.00875
   C       -8.77163       -24.89778         9.93426
   C       -8.07394       -26.09952         9.87835
   C       -7.09164       -25.93458         8.85900
   C       -5.96693       -26.83532         8.49512
   F       -4.91837       -26.16583         7.98982
   F       -5.47708       -27.51142         9.54695
   F       -6.29726       -27.76570         7.57457
   O       -8.38874       -27.12448        10.68588
   C       -8.06778       -28.45262        10.30531
   C       -9.85178       -24.52462        10.80127
   C      -10.44784       -23.33407        10.78750
   H        2.83428        -0.85193        -4.33767
   H        0.37273         1.07627         1.12935
   H        0.44933         1.75507        -0.51175
   H        1.95130         1.28264         0.33841
   H        0.00399        -2.83274        -0.34043
   H        0.87233        -4.49522        -2.77353
   H       -1.07015        -4.66074         0.63857
   H       -3.15021       -10.25850         2.27431
   H       -1.84209       -13.40870        -1.16492
   H       -3.35948       -19.10357         0.74304
   H       -3.88522       -21.09777         1.99032
   H       -5.93549       -25.43697         5.89191
   H       -8.83099       -29.08135        10.76323
   H       -7.08811       -28.74495        10.68810
   H       -8.09692       -28.58223         9.22187
   H      -10.15298       -25.30659        11.48256
   H      -10.13652       -22.55998        10.10724
   H      -11.25793       -23.10441        11.45554
*
