# ORCA input file
# SCF done       -202.453975067930          0.000943224256
! CAM-B3LYP def2-SVP def2/J RIJCOSX Grid4 TightSCF
%maxcore 5000
%tddft
    Mode sTDDFT
    Ethresh 5.0
    maxcore 5000
end

%pal
  nprocs 6
  end
* xyz 0 1
   C       -1.28902         1.46519        -0.54547
   S       -2.17224         0.01287        -0.40835
   C       -0.72139        -0.92821        -0.33727
   C        0.39385        -0.12777        -0.44701
   C        0.05820         1.25081        -0.55520
   C        1.02942         2.38306        -0.69574
   F        0.46808         3.54643        -0.31805
   F        2.13168         2.23851         0.04176
   F        1.42466         2.56660        -1.96748
   C        1.79966        -0.62745        -0.58170
   F        1.86054        -1.91724        -0.96157
   F        2.46985         0.04819        -1.52929
   F        2.52579        -0.52855         0.53828
   C       -0.81288        -2.35962        -0.16903
   C       -0.01979        -3.05658         0.75382
   C       -0.06182        -4.49622         0.85486
   N        0.84586        -5.11502         1.62482
   C        1.66777        -4.40640         2.35892
   C        1.55484        -2.97659         2.41213
   N        0.74780        -2.34580         1.60036
   C        2.30584        -2.24508         3.36571
   N        2.91280        -1.70427         4.17256
   C        2.64944        -5.07487         3.12942
   N        3.44434        -5.59083         3.77370
   C       -0.98443        -5.27338         0.11680
   C       -1.82507        -4.55474        -0.75637
   C       -1.74425        -3.11636        -0.89178
   N       -2.63528        -2.64003        -1.76414
   S       -3.49888        -3.86651        -2.34069
   N       -2.79130        -5.05687        -1.53288
   C       -1.06021        -6.71586         0.23461
   C       -1.41569        -7.48918        -0.88340
   C       -1.49015        -8.85194        -0.76590
   C       -1.21975        -9.48765         0.46150
   C       -0.87675        -8.73037         1.57537
   C       -0.79977        -7.35978         1.45431
   C       -1.38338       -10.90881         0.28898
   C       -1.76807       -11.15844        -1.04391
   C       -1.84381        -9.86802        -1.82562
   C       -3.25463        -9.62212        -2.39016
   C       -4.32770        -9.60101        -1.30858
   C       -0.81820        -9.85434        -2.97539
   C        0.61068       -10.08600        -2.49905
   C       -2.01191       -12.43648        -1.46956
   C       -1.85975       -13.51885        -0.57848
   C       -1.46186       -13.25045         0.74487
   C       -1.23039       -11.96562         1.18122
   C       -2.12560       -14.83741        -1.06112
   C       -1.90710       -16.01847        -0.41427
   C       -2.21897       -17.25925        -0.98641
   C       -1.97358       -18.48531        -0.41228
   C       -2.28566       -19.74836        -0.96392
   C       -1.90751       -20.80710        -0.19140
   C       -1.27086       -20.43878         1.01061
   S       -1.18385       -18.69653         1.14191
   C       -0.74389       -21.28442         1.97514
   C       -0.73083       -22.69539         1.95525
   C       -0.11057       -23.26497         3.02735
   C        0.40676       -22.34058         3.96338
   S        0.05729       -20.69987         3.40834
   C        1.12535       -22.50915         5.12202
   C        1.50405       -23.69435         5.78658
   C        2.41500       -23.71592         6.85219
   C        2.59307       -25.05039         7.28065
   C        3.38767       -25.60700         8.26117
   C        3.33454       -26.99785         8.43305
   C        4.00213       -27.84504         9.30735
   C        3.58097       -29.19051         9.06704
   C        2.65095       -29.17231         8.04288
   C        2.46342       -27.82255         7.61199
   C        1.66969       -27.27636         6.64064
   C        1.72961       -25.87736         6.45558
   C        1.07953       -25.04945         5.56239
   C        4.03203       -30.37602         9.75511
   C        4.92994       -30.40781        10.73621
   H       -1.79157         2.40962        -0.61213
   H       -1.60857        -7.00307        -1.82578
   H       -0.68282        -9.20402         2.52572
   H       -0.55971        -6.76586         2.32086
   H       -3.48315       -10.40668        -3.11483
   H       -3.25694        -8.66641        -2.91772
   H       -4.34642       -10.54369        -0.76556
   H       -5.30602        -9.44153        -1.75596
   H       -4.13899        -8.79829        -0.59955
   H       -0.87856        -8.88947        -3.48275
   H       -1.09060       -10.62894        -3.69556
   H        0.91196        -9.31307        -1.79574
   H        1.29399       -10.06581        -3.34479
   H        0.70161       -11.05178        -2.00668
   H       -2.31283       -12.63285        -2.48906
   H       -1.34938       -14.06975         1.43778
   H       -0.93452       -11.78030         2.20298
   H       -2.53348       -14.89129        -2.06410
   H       -1.46643       -16.03278         0.57322
   H       -2.68831       -17.26597        -1.96220
   H       -2.77807       -19.83637        -1.91623
   H       -2.06609       -21.83578        -0.46039
   H       -1.16863       -23.25634         1.14908
   H        0.01107       -24.32537         3.13891
   H        1.47824       -21.59771         5.59013
   H        2.91260       -22.85693         7.26281
   H        4.03309       -24.99857         8.87819
   H        4.72065       -27.54142        10.04614
   H        2.14621       -30.02702         7.63069
   H        1.02093       -27.88350         6.02445
   H        0.34451       -25.37049         4.84920
   H        3.58006       -31.29933         9.41380
   H        5.41037       -29.51814        11.10597
   H        5.22177       -31.33332        11.20136
*
