# ORCA input file
# SCF done       -227.207009782024          0.000723026042
! CAM-B3LYP def2-SVP def2/J RIJCOSX Grid4 TightSCF
%maxcore 5000
%tddft
    Mode sTDDFT
    Ethresh 5.0
    maxcore 5000
end

%pal
  nprocs 6
  end
* xyz 0 1
   C       -3.79323        -2.16673         0.48488
   C       -2.67529        -2.44959        -0.25349
   C       -1.95619        -3.66018        -0.16643
   N       -1.33765        -4.62647        -0.13805
   C       -2.06782        -1.55623        -1.16206
   N       -1.50172        -0.87357        -1.89097
   C       -4.37936        -3.01012         1.51583
   C       -5.42491        -2.29330         2.15186
   C       -6.16850        -2.82763         3.17697
   C       -5.86564        -4.12574         3.59769
   C       -4.82289        -4.83511         2.95332
   C       -4.07209        -4.29753         1.91496
   S       -4.63220        -6.42213         3.62822
   C       -5.91961        -6.12854         4.74505
   C       -6.47283        -4.90189         4.62466
   C       -5.57422        -0.96924         1.52462
   O       -6.43400        -0.14984         1.76792
   C       -4.54211        -0.92172         0.45056
   C       -4.47545         0.03459        -0.50970
   C       -5.11782         1.31164        -0.43031
   C       -5.69428         1.89782        -1.57336
   C       -6.40788         3.15119        -1.51713
   N       -7.06267         3.58242        -2.60961
   C       -6.99041         2.89242        -3.71950
   C       -6.19916         1.69561        -3.79513
   N       -5.60194         1.22276        -2.73437
   C       -6.07859         1.00949        -5.03053
   N       -6.01316         0.48389        -6.04592
   C       -7.70597         3.32736        -4.86260
   N       -8.26559         3.64205        -5.81143
   C       -6.50543         3.89866        -0.31934
   C       -5.86259         3.34155         0.80181
   C       -5.17013         2.07370         0.74865
   N       -4.56940         1.78532         1.90460
   S       -4.87701         2.95266         2.95278
   N       -5.75386         3.90254         2.01306
   C       -7.23645         5.14813        -0.23508
   C       -7.25226         6.04800        -1.31267
   C       -7.98156         7.20744        -1.21625
   C       -8.66975         7.51834        -0.02745
   C       -8.64991         6.63897         1.04853
   C       -7.94095         5.46333         0.93671
   C       -9.28095         8.81700        -0.17305
   C       -8.97310         9.31493        -1.45257
   C       -8.16843         8.30351        -2.23955
   C       -6.83164         8.87681        -2.73143
   C       -5.99073         9.44610        -1.59431
   C       -9.05757         7.83544        -3.41734
   C       -8.52842         6.65013        -4.21153
   C       -9.43588        10.54299        -1.84964
   C      -10.22597        11.31312        -0.97587
   C      -10.51255        10.80341         0.30231
   C      -10.04839         9.57157         0.70713
   C      -10.72125        12.57488        -1.44553
   C      -11.56533        13.41542        -0.79663
   C      -12.06018        14.61852        -1.34379
   S      -11.62118        15.16056        -2.92710
   C      -12.65232        16.55718        -2.83962
   C      -13.29996        16.61259        -1.58719
   C      -12.96160        15.52103        -0.74050
   C      -13.52009        15.45078         0.54338
   C      -14.37165        16.43535         0.99452
   C      -14.95020        16.34637         2.33459
   C      -14.33182        15.83436         3.39019
   C      -14.69497        17.53744         0.15113
   C      -15.58568        18.63180         0.64902
   C      -14.16545        17.60893        -1.11257
   C      -12.76285        17.47719        -3.88362
   C      -12.02144        17.46496        -5.03701
   C      -12.14102        18.37347        -6.09818
   C      -12.80401        19.57544        -6.19614
   C      -13.35875        20.49558        -5.23883
   C      -12.93673        20.70688        -3.94521
   C      -13.53672        21.61486        -3.05459
   N      -14.02248        22.29472        -2.26555
   C      -11.82845        20.05605        -3.37199
   N      -10.91892        19.56677        -2.86977
   C      -14.30104        21.35777        -5.95193
   C      -14.15742        21.12935        -7.34250
   C      -13.15782        20.06053        -7.55309
   O      -12.74475        19.63617        -8.60998
   C      -14.88252        21.81792        -8.28277
   C      -15.80493        22.76751        -7.82823
   C      -15.95010        22.97875        -6.43758
   C      -15.20631        22.29032        -5.48569
   S      -17.15360        24.18545        -6.09669
   C      -17.43855        24.38913        -7.80498
   C      -16.67396        23.59551        -8.59111
  Br      -18.72129        25.62826        -8.38744
   H       -6.95982        -2.25878         3.64022
   H       -3.29404        -4.87948         1.44958
   H       -6.18779        -6.90616         5.43358
   H       -7.28409        -4.54488         5.23292
   H       -3.95384        -0.16284        -1.43762
   H       -6.66095         5.83558        -2.18752
   H       -9.18397         6.86990         1.95780
   H       -7.93519         4.76047         1.75397
   H       -7.03295         9.66148        -3.46340
   H       -6.26882         8.08841        -3.23197
   H       -6.51556        10.25758        -1.09473
   H       -5.05031         9.83193        -1.98079
   H       -5.77006         8.67671        -0.85736
   H       -9.19358         8.68675        -4.08790
   H      -10.03912         7.57442        -3.01273
   H       -7.54780         6.85626        -4.63193
   H       -9.20371         6.43383        -5.03576
   H       -8.46778         5.76175        -3.58994
   H       -9.20692        10.93090        -2.83169
   H      -11.10858        11.38789         0.98559
   H      -10.28113         9.19632         1.69240
   H      -10.39710        12.86167        -2.43925
   H      -11.92045        13.17349         0.19445
   H      -13.29114        14.61346         1.18369
   H      -15.95136        16.74014         2.44484
   H      -13.32068        15.46589         3.34016
   H      -14.80894        15.78392         4.35367
   H      -16.60549        18.26827         0.77855
   H      -15.60478        19.45980        -0.05496
   H      -15.23546        19.00185         1.61102
   H      -14.40654        18.45234        -1.74207
   H      -13.53181        18.22695        -3.76229
   H      -11.31847        16.65297        -5.17355
   H      -11.70792        18.05261        -7.04156
   H      -14.74533        21.63083        -9.33616
   H      -15.35400        22.48460        -4.43617
   H      -16.71961        23.59108        -9.66484
*
