# ORCA input file
# SCF done       -201.163115164748          0.000960796555
! CAM-B3LYP def2-SVP def2/J RIJCOSX Grid4 TightSCF
%maxcore 5000
%tddft
    Mode sTDDFT
    Ethresh 5.0
    maxcore 5000
end

%pal
  nprocs 6
  end
* xyz 0 1
   C       -5.19798        -2.33740        -1.24917
   C       -5.72165        -3.56676        -1.58108
   C       -5.09685        -4.79584        -1.29265
   N       -4.64525        -5.83303        -1.09198
   C       -6.93566        -3.78972        -2.25802
   N       -7.90956        -4.05957        -2.80845
   C       -3.91802        -2.12288        -0.57758
   C       -3.70995        -0.72752        -0.43763
   C       -2.58769        -0.20030         0.15097
   C       -1.61999        -1.09218         0.62656
   C       -1.83612        -2.48196         0.48446
   C       -2.97374        -3.01597        -0.11223
   S       -0.51303        -3.39396         1.14169
   C        0.30132        -1.93539         1.59060
   C       -0.37962        -0.81442         1.26736
   C       -4.86155        -0.01226        -1.01539
   O       -5.01060         1.19969        -1.06268
   C       -5.77510        -1.04067        -1.50600
   C       -6.99883        -0.81800        -2.10695
   C       -7.64738         0.36157        -2.44096
   S       -7.05325         1.97879        -2.18940
   C       -8.43604         2.69129        -2.94571
   C       -9.35216         1.71009        -3.38851
   C       -8.91570         0.39450        -3.09100
   C       -9.72512        -0.69005        -3.43280
   C      -10.93562        -0.49773        -4.07291
   C      -11.77711        -1.64519        -4.40066
   C      -11.34281        -2.88683        -4.58459
   C      -11.36375         0.82198        -4.38853
   C      -12.65906         1.05174        -5.10668
   C      -10.57871         1.89452        -4.04375
   C       -8.57649         4.08833        -3.06754
   C       -7.69532         4.97955        -2.53392
   C       -7.78418         6.38576        -2.61949
   C       -8.69162         7.18091        -3.30476
   C       -8.43008         8.53484        -3.12263
   C       -7.31759         8.79314        -2.28536
   S       -6.58942         7.33562        -1.73697
   C       -7.19313        10.17698        -2.19432
   C       -8.22663        10.73801        -2.98204
   N       -8.96738         9.72655        -3.53670
   C       -8.23452        12.12969        -2.99148
   C       -7.21536        12.65295        -2.21098
   S       -6.23362        11.39707        -1.45560
   C       -6.87610        13.99796        -1.93782
   C       -7.44785        15.08735        -2.51979
   C       -7.12673        16.43559        -2.24845
   S       -7.49882        17.62070        -3.45245
   C       -6.80694        18.93401        -2.53534
   C       -6.27652        18.44227        -1.32207
   C       -6.49475        17.04310        -1.14205
   C       -6.13566        16.45076         0.07811
   C       -5.46963        17.16991         1.04659
   C       -5.12052        16.54238         2.31901
   C       -4.83934        15.25596         2.48130
   C       -5.12043        18.52791         0.79899
   C       -4.29915        19.29711         1.78424
   C       -5.53850        19.14146        -0.35500
   C       -6.88147        20.21417        -3.09806
   C       -6.69731        21.43175        -2.48996
   C       -6.81351        22.61115        -3.23509
   C       -6.77984        23.92957        -2.84895
   C       -6.49573        24.61196        -1.61343
   C       -5.71300        24.18728        -0.56465
   C       -5.48767        24.93138         0.61081
   N       -5.27631        25.46329         1.60709
   C       -4.94235        23.01377        -0.53742
   N       -4.23742        22.10958        -0.44620
   C       -7.04058        25.96609        -1.72629
   C       -7.46331        26.17801        -3.06232
   C       -7.27223        24.93232        -3.82653
   O       -7.50266        24.74314        -5.00268
   C       -7.97870        27.37481        -3.49514
   C       -8.09442        28.41158        -2.56340
   C       -7.68739        28.18540        -1.22833
   C       -7.15816        26.97574        -0.79164
   S       -7.93202        29.59817        -0.24909
   C       -8.55853        30.46310        -1.61036
   C       -8.58895        29.73407        -2.74682
   H       -2.45848         0.86720         0.24108
   H       -3.08951        -4.08358        -0.19569
   H        1.25476        -2.00983         2.07646
   H       -0.02930         0.18189         1.46862
   H       -7.55343        -1.70547        -2.37654
   H       -9.42371        -1.69416        -3.18113
   H      -12.83432        -1.44091        -4.50027
   H      -10.30259        -3.15819        -4.52793
   H      -12.02633        -3.68669        -4.81296
   H      -13.50311         0.76344        -4.48001
   H      -12.70118         0.46409        -6.02225
   H      -12.77117         2.10232        -5.36346
   H      -10.90892         2.89507        -4.28116
   H       -9.44236         4.44941        -3.60411
   H       -6.85125         4.59323        -1.97734
   H       -9.48859         6.78430        -3.90563
   H       -9.76166         9.83892        -4.14193
   H       -8.94176        12.73688        -3.52495
   H       -6.06177        14.13435        -1.24265
   H       -8.16618        14.93421        -3.31456
   H       -6.42166        15.43286         0.28340
   H       -5.08775        17.20246         3.17505
   H       -4.81787        14.56049         1.65880
   H       -4.59848        14.85047         3.44886
   H       -4.86737        19.48302         2.69624
   H       -4.00659        20.25480         1.36235
   H       -3.40312        18.74088         2.05430
   H       -5.25403        20.16543        -0.53039
   H       -7.16662        20.23259        -4.14487
   H       -6.52628        21.48544        -1.42904
   H       -7.04682        22.48703        -4.28969
   H       -8.28284        27.50715        -4.52188
   H       -6.86779        26.85444         0.23854
   H       -8.87005        31.48009        -1.47129
   H       -8.94582        30.10476        -3.69077
*
