# ORCA input file
# SCF done       -206.515051965405          0.000555467228
! CAM-B3LYP def2-SVP def2/J RIJCOSX Grid4 TightSCF
%maxcore 5000
%tddft
    Mode sTDDFT
    Ethresh 5.0
    maxcore 5000
end

%pal
  nprocs 6
  end
* xyz 0 1
   C       -3.74986        -2.38984         3.45665
   C       -4.33117        -3.61775         3.24095
   C       -3.65069        -4.74703         2.74959
   N       -3.18358        -5.70271         2.31470
   C       -5.68187        -3.94755         3.45563
   N       -6.74505        -4.34502         3.64818
   C       -2.31466        -2.12990         3.46087
   C       -2.10172        -0.77742         3.82640
   C       -0.84714        -0.26142         4.03593
   C        0.24805        -1.11791         3.86953
   C        0.02513        -2.45536         3.46481
   C       -1.24510        -2.97946         3.25665
   S        1.51520        -3.32884         3.28370
   C        2.40606        -1.90641         3.75791
   C        1.63091        -0.83210         4.03800
  Br        4.27754        -1.96959         3.83295
   C       -3.41217        -0.10225         3.97500
   O       -3.59944         1.07790         4.19927
   C       -4.41923        -1.15732         3.77621
   C       -5.78695        -0.99512         3.82005
   C       -6.51350         0.17132         4.03365
   C       -7.89436         0.15129         3.92291
   C       -8.80418         1.23362         3.89255
   C      -10.08226         0.88195         3.55656
   C      -10.24478        -0.49973         3.32297
   S       -8.74798        -1.34769         3.64159
   C      -11.26904        -1.20886         2.72064
   C      -12.41004        -0.76139         2.01301
   C      -12.94203        -1.70486         1.18453
   C      -12.23145        -2.93507         1.17907
   S      -11.05512        -2.92727         2.48262
   C      -12.31913        -3.96607         0.28101
   C      -11.33408        -4.96050         0.09022
   S      -11.80011        -6.49568        -0.60424
   C      -10.15919        -7.08410        -0.54987
   C       -9.30846        -6.12950        -0.02806
   C       -9.95352        -4.90885         0.28689
   S       -9.08846        -3.39508         0.55683
   C       -7.60544        -3.71449        -0.46951
   C       -6.63625        -4.42801         0.42303
   O       -5.58961        -3.94637         0.78020
   C       -7.12111        -5.76788         0.93771
   O       -7.98217        -6.44794         0.05406
   N       -9.89157        -8.38780        -0.91372
   C       -9.28837        -9.28519         0.08138
   N       -9.12810       -10.52474        -0.62698
   C       -8.70143       -10.12927        -1.96552
   C       -7.17457       -10.09541        -2.01782
   C       -6.67214        -9.58325        -3.35831
   C       -7.33150        -8.21915        -3.76138
   C       -8.26215        -7.69430        -2.67430
   C       -9.30971        -8.72045        -2.21615
   N       -6.17528        -7.35139        -3.98729
   C       -5.02107        -8.22759        -4.18748
   N       -5.23303        -9.35480        -3.32693
   C       -6.10096        -6.09391        -3.53674
   C       -4.99159        -5.40193        -3.14633
   C       -5.12612        -4.14691        -2.52856
   C       -4.26015        -3.54330        -1.65853
   C       -3.04923        -4.01478        -1.03201
   C       -2.72932        -5.30595        -0.69043
   C       -1.52304        -5.63892        -0.03849
   N       -0.52115        -5.92809         0.44114
   C       -3.60220        -6.39710        -0.83996
   N       -4.30268        -7.30569        -0.92306
   C       -2.33176        -2.83266        -0.55456
   C       -3.23423        -1.73967        -0.55197
   C       -4.48957        -2.15735        -1.20884
   O       -5.49398        -1.49398        -1.38065
   C       -2.88895        -0.50384        -0.06251
   C       -1.56853        -0.31584         0.36037
   C       -0.65274        -1.38716         0.25655
   C       -1.02099        -2.66153        -0.15957
   S        0.95439        -0.89539         0.69504
   C        0.36671         0.70152         1.07544
   C       -0.95706         0.86956         0.85662
  Br        1.55871         1.98241         1.74239
   H       -0.70993         0.76703         4.33251
   H       -1.36589        -4.00847         2.95985
   H        2.01612         0.12347         4.34459
   H       -6.37714        -1.88258         3.62475
   H       -6.00224         1.10317         4.22377
   H       -8.47939         2.24407         4.06784
   H      -10.89382         1.57911         3.44494
   H      -12.76130         0.25258         2.08394
   H      -13.76357        -1.52937         0.51258
   H      -13.19526        -4.02539        -0.35087
   H       -7.21859        -2.74064        -0.77139
   H       -7.89942        -4.30821        -1.33243
   H       -7.57913        -5.60040         1.92423
   H       -6.25730        -6.42592         1.07383
   H       -9.95159        -9.38594         0.94208
   H       -8.30775        -8.92540         0.42274
   H      -10.01793       -11.00947        -0.67276
   H       -9.06561       -10.84972        -2.70236
   H       -6.79211       -11.10079        -1.84447
   H       -6.79747        -9.45763        -1.21827
   H       -6.87804       -10.32355        -4.14157
   H       -7.88103        -8.33334        -4.70477
   H       -8.79562        -6.80851        -3.02891
   H       -7.65541        -7.41045        -1.81485
   H      -10.11904        -8.77193        -2.95617
   H       -4.07828        -7.72861        -3.98197
   H       -5.03545        -8.56325        -5.23445
   H       -4.94012        -9.11655        -2.38116
   H       -7.05810        -5.60053        -3.42763
   H       -4.01355        -5.85295        -3.18451
   H       -6.01885        -3.57413        -2.75489
   H       -3.60370         0.30363        -0.03110
   H       -0.29466        -3.45684        -0.19522
   H       -1.48595         1.78746         1.03798
*
