# ORCA input file
# SCF done       -182.862580140656          0.000285604379
! CAM-B3LYP def2-SVP def2/J RIJCOSX Grid4 TightSCF
%maxcore 5000
%tddft
    Mode sTDDFT
    Ethresh 5.0
    maxcore 5000
end

%pal
  nprocs 6
  end
* xyz 0 1
   C       -9.79965         2.24826        -6.53078
   C      -11.11671         2.40109        -6.89755
   C      -11.54455         2.50598        -8.23298
   N      -11.97829         2.62702        -9.29095
   C      -12.22465         2.46364        -6.03284
   N      -13.19861         2.45268        -5.42063
   C       -8.71724         1.94364        -7.45149
   C       -7.51155         1.83403        -6.71671
   C       -6.32712         1.44415        -7.29026
   C       -6.33312         1.14332        -8.65698
   C       -7.53419         1.29002        -9.39088
   C       -8.72793         1.69568        -8.81188
   S       -7.32584         0.85415       -11.05440
   C       -5.65351         0.48096       -10.75196
   C       -5.26521         0.67703        -9.46864
  Br       -4.57306        -0.12494       -12.15654
   C       -7.76884         2.18572        -5.31017
   O       -6.92763         2.36870        -4.45321
   C       -9.23511         2.35442        -5.20006
   C       -9.97767         2.68630        -4.10147
   N       -9.59994         2.90090        -2.82993
   C       -8.35660         2.73516        -2.23616
   S       -7.65614         1.16347        -2.07952
   C       -6.35668         1.85572        -1.17857
   N       -5.32683         1.00558        -0.73661
   O       -4.41753         1.50525        -0.10462
   O       -5.43018        -0.17362        -1.01487
   C       -6.47105         3.20506        -0.99180
   C       -7.62990         3.74094        -1.59772
   C       -7.94475         5.13998        -1.56719
   C       -8.88035         5.76965        -2.32375
   C       -9.19392         7.14056        -2.24350
   C      -10.20751         7.71618        -2.96519
   C      -10.63529         9.06677        -2.92503
   C      -11.72276         9.33542        -3.69823
   C      -12.22293         8.21664        -4.40254
   S      -11.23794         6.80693        -4.06971
   C      -13.34410         8.15277        -5.20602
   C      -14.27996         9.18083        -5.46451
   C      -15.33936         8.78279        -6.21963
   C      -15.30268         7.41982        -6.60791
   S      -13.83247         6.67149        -6.00757
   C      -16.29542         6.75144        -7.27968
   C      -16.30634         5.39824        -7.64156
   S      -14.91022         4.34165        -7.53269
   C      -15.79466         2.93724        -8.04051
   C      -17.12281         3.27466        -8.31458
   C      -17.38603         4.65800        -8.10435
   S      -19.02495         5.09171        -8.46057
   C      -19.32768         3.43027        -8.91150
   N      -20.62053         3.10503        -9.35425
   O      -20.83598         1.94732        -9.66128
   O      -21.43277         4.00999        -9.39581
   C      -18.25745         2.58849        -8.79172
   C      -15.11050         1.69950        -8.06592
   C      -15.64556         0.47739        -7.87613
   N      -14.88891        -0.67564        -7.85848
   C      -13.57562        -0.72672        -8.24963
   S      -12.37813        -1.32911        -7.13406
   C      -11.13863        -1.02462        -8.30882
   N       -9.81766        -1.29481        -7.96348
   O       -8.96029        -1.13780        -8.82099
   O       -9.59891        -1.63662        -6.81080
   C      -11.62869        -0.48652        -9.47218
   C      -13.02189        -0.30812        -9.45860
   C      -13.72414         0.23279       -10.61182
   C      -15.00265         0.05326       -10.91564
   H       -5.42916         1.35069        -6.70005
   H       -9.61700         1.78450        -9.41276
   H       -4.27022         0.49125        -9.10721
   H      -11.03898         2.84466        -4.24796
   H      -10.29639         3.33681        -2.23520
   H       -5.73677         3.78459        -0.46200
   H       -7.34994         5.72946        -0.88262
   H       -9.43925         5.21946        -3.06674
   H       -8.63657         7.76831        -1.56228
   H      -10.12817         9.79304        -2.31489
   H      -12.18194        10.30427        -3.77789
   H      -14.15821        10.17345        -5.07030
   H      -16.15896         9.41933        -6.50240
   H      -17.19247         7.30855        -7.51948
   H      -18.30222         1.54771        -9.05313
   H      -14.03686         1.77633        -8.14951
   H      -16.69556         0.32802        -7.67650
   H      -15.18842        -1.39342        -7.21147
   H      -10.99945        -0.24772       -10.31062
   H      -13.09242         0.81411       -11.26862
   H      -15.66642        -0.54596       -10.31766
   H      -15.42347         0.48511       -11.80645
*
