# ORCA input file
# SCF done       -185.884164265202          0.000911898606
! CAM-B3LYP def2-SVP def2/J RIJCOSX Grid4 TightSCF
%maxcore 5000
%tddft
    Mode sTDDFT
    Ethresh 5.0
    maxcore 5000
end

%pal
  nprocs 6
  end
* xyz 0 1
   C      -14.18053         5.25366        -1.73475
   C      -14.94773         4.11451        -1.82156
   C      -16.26086         4.08390        -2.33133
   N      -17.33313         3.99066        -2.73296
   C      -14.55352         2.82354        -1.41824
   N      -14.31395         1.74039        -1.11721
   C      -14.60617         6.58670        -2.15836
   C      -13.55845         7.50219        -1.89522
   C      -13.65056         8.83993        -2.18898
   C      -14.83556         9.29960        -2.77438
   C      -15.87626         8.37849        -3.03486
   C      -15.78281         7.02412        -2.73544
   S      -17.24882         9.15493        -3.76591
   C      -16.41603        10.68581        -3.71076
   C      -15.17486        10.62152        -3.17387
  Br      -17.26277        12.22444        -4.37070
   C      -12.41953         6.77855        -1.29207
   O      -11.36276         7.26785        -0.94190
   C      -12.83930         5.36545        -1.22014
   C      -12.04655         4.33647        -0.75434
   C      -10.74631         4.48079        -0.27956
   C       -9.97516         3.41240         0.13327
   C       -8.63971         3.46428         0.59565
   C       -8.10629         2.24749         0.90215
   C       -8.99884         1.17222         0.70202
   S      -10.54295         1.75834         0.12013
   C       -8.76196        -0.17664         0.89105
   C       -7.55969        -0.80494         1.29118
   C       -7.63133        -2.16216         1.34785
   C       -8.90195        -2.68790         0.99974
   S      -10.00800        -1.36703         0.60927
   C       -9.25964        -4.00348         0.93991
   N      -10.50307        -4.41052         0.58406
   C      -10.98435        -5.67762         0.46339
   S      -12.43027        -5.88666        -0.48479
   C      -12.32205        -7.60053        -0.25064
   N      -13.31637        -8.40698        -0.81182
   O      -13.22556        -9.61061        -0.64844
   O      -14.20282        -7.83733        -1.42595
   C      -11.24381        -7.97360         0.50666
   C      -10.46515        -6.88567         0.94293
   C       -9.33708        -7.03958         1.83730
   C       -8.55901        -8.13503         1.86268
   C       -7.48022        -8.31591         2.79165
   C       -6.62957        -9.35363         2.81872
   C       -6.62724       -10.49377         1.85121
   C       -5.56311        -9.45362         3.87826
   N       -5.92079        -8.78504         5.10503
   C       -5.00733        -8.42780         6.01452
   C       -5.30228        -8.09720         7.30652
   C       -4.38047        -7.71422         8.29026
   C       -3.01017        -7.80863         8.36832
   C       -1.99394        -8.55117         7.67288
   C       -2.12387        -9.73352         6.97603
   C       -1.04953       -10.43201         6.39080
   N       -0.23050       -11.03981         5.86173
   C       -3.32489       -10.43169         6.78507
   N       -4.27813       -11.03906         6.56991
   C       -0.69833        -7.96897         8.03299
   C       -0.89410        -7.03677         9.08000
   C       -2.33856        -6.95000         9.37527
   O       -2.87440        -6.28639        10.23673
   C        0.14028        -6.34914         9.66395
   C        1.43288        -6.58167         9.18033
   C        1.61680        -7.49910         8.12038
   C        0.56917        -8.20291         7.53699
   S        3.28973        -7.62306         7.66528
   C        3.71335        -6.45911         8.89259
   C        2.65870        -6.00010         9.60660
  Br        5.50848        -5.96021         9.11429
   H      -12.83396         9.51177        -1.97558
   H      -16.60475         6.36409        -2.95609
   H      -14.52354        11.46933        -3.06404
   H      -12.45102         3.33164        -0.76486
   H      -10.30766         5.46743        -0.24289
   H       -8.11565         4.39953         0.68002
   H       -7.10443         2.09926         1.26315
   H       -6.67555        -0.23684         1.51600
   H       -6.81529        -2.80549         1.62419
   H       -8.53080        -4.76982         1.14959
   H      -11.12999        -3.67303         0.27707
   H      -11.05681        -8.99946         0.76613
   H       -9.15588        -6.23702         2.54014
   H       -8.74032        -8.92148         1.14628
   H       -7.36402        -7.53358         3.53213
   H       -7.10108       -10.23495         0.91028
   H       -7.15518       -11.34654         2.27966
   H       -5.60515       -10.80850         1.64919
   H       -4.63173        -9.01270         3.50338
   H       -5.35630       -10.51409         4.08844
   H       -6.84699        -8.99780         5.45315
   H       -4.00090        -8.31042         5.63573
   H       -6.34411        -8.09863         7.59944
   H       -4.80793        -7.20442         9.14994
   H       -0.03984        -5.65399        10.46882
   H        0.76306        -8.88769         6.72837
   H        2.73910        -5.28105        10.40126
*
