# ORCA input file
# SCF done       -187.874787516887          0.000399324790
! CAM-B3LYP def2-SVP def2/J RIJCOSX Grid4 TightSCF
%maxcore 5000
%tddft
    Mode sTDDFT
    Ethresh 5.0
    maxcore 5000
end

%pal
  nprocs 6
  end
* xyz 0 1
   C      -11.66901        -0.23699        -8.87124
   C      -12.56800        -1.27110        -8.88204
   C      -12.76395        -2.14002        -9.97481
   N      -12.96156        -2.87637       -10.83273
   C      -13.39654        -1.59928        -7.78977
   N      -14.08228        -1.89686        -6.91863
   C      -10.77705         0.13915        -9.96536
   C       -9.96764         1.22776        -9.54562
   C       -9.04271         1.83015       -10.36336
   C       -8.91429         1.33740       -11.66469
   C       -9.71609         0.24648       -12.07727
   C      -10.64883        -0.36511       -11.24557
   S       -9.39646        -0.18798       -13.72883
   C       -8.21413         1.09034       -13.84174
   C       -8.06045         1.80218       -12.70083
  Br       -7.29969         1.36959       -15.45296
   C      -10.32016         1.57948        -8.17142
   O       -9.81948         2.45414        -7.46824
   C      -11.41147         0.67726        -7.78010
   C      -12.03658         0.80667        -6.56463
   N      -11.62013         1.75834        -5.71866
   C      -12.11893         2.09369        -4.50747
   S      -13.45637         1.25452        -3.78970
   C      -13.35803         2.32034        -2.42455
   N      -14.26970         2.13801        -1.37626
   O      -14.18917         2.89271        -0.42465
   O      -15.07630         1.23424        -1.49867
   C      -12.36277         3.25510        -2.52374
   C      -11.62782         3.14637        -3.71931
   C      -10.51659         3.97448        -4.10735
   C      -10.06390         5.04440        -3.42680
   C       -8.92882         5.79920        -3.87418
   C       -8.41478         6.87628        -3.26129
   C       -8.99203         7.48075        -2.01580
   C       -7.19949         7.56900        -3.82998
   N       -7.53088         8.86394        -4.37888
   C       -7.58427         9.14361        -5.68658
   C       -8.00882        10.32663        -6.20557
   C       -8.01033        10.62621        -7.58196
   S       -7.43626         9.53789        -8.81722
   C       -7.79929        10.65115       -10.13158
   C       -8.31521        11.84017        -9.59205
   C       -8.44392        11.79721        -8.18547
   S       -9.13058        13.25285        -7.54840
   C       -9.23637        13.91862        -9.16461
   C       -9.77821        15.25802        -9.42836
   O       -9.87908        15.66934       -10.56270
   C      -10.15613        16.08347        -8.22051
   C       -8.90191        16.73214        -7.62902
   C       -8.77684        13.05977       -10.12688
   C       -7.52407        10.40501       -11.47422
   C       -7.19411         9.22552       -12.10109
   C       -7.38075         7.85573       -11.71804
   C       -8.39833         7.35505       -10.93537
   C       -8.56407         5.98812       -10.67127
   N       -8.71631         4.87649       -10.42027
   C       -9.44732         8.14332       -10.42616
   N      -10.35136         8.73897       -10.04149
   C       -6.51085         7.04035       -12.56240
   C       -5.99906         7.85808       -13.59957
   C       -6.45291         9.25210       -13.38127
   O       -6.22961        10.21760       -14.07823
   C       -5.20876         7.35920       -14.60527
   C       -4.89654         5.99423       -14.57646
   C       -5.38312         5.19702       -13.51554
   C       -6.19262         5.69900       -12.50350
   S       -4.85469         3.54712       -13.66388
   C       -4.01929         3.93860       -15.14139
   C       -4.11728         5.24073       -15.49794
  Br       -3.09800         2.58973       -16.06196
   H       -8.46806         2.67587       -10.02401
   H      -11.24334        -1.18706       -11.60842
   H       -7.37938         2.62558       -12.59102
   H      -12.86558         0.18313        -6.25525
   H      -10.82572         2.31297        -6.10044
   H      -12.18411         3.97733        -1.74904
   H      -10.00648         3.70909        -5.02371
   H      -10.54826         5.35962        -2.51598
   H       -8.45713         5.43745        -4.77892
   H       -9.09392         6.72949        -1.23493
   H       -9.98186         7.89384        -2.20800
   H       -8.35464         8.27515        -1.63521
   H       -6.75318         6.96674        -4.62283
   H       -6.45507         7.70816        -3.03581
   H       -7.91662         9.54274        -3.73813
   H       -7.22520         8.36716        -6.34932
   H       -8.37589        11.10731        -5.55304
   H      -10.63914        15.45590        -7.46965
   H      -10.84949        16.86155        -8.54201
   H       -8.19944        15.97665        -7.28443
   H       -9.17383        17.36113        -6.78526
   H       -8.41056        17.34897        -8.37771
   H       -8.78151        13.31768       -11.17023
   H       -7.48034        11.28547       -12.10835
   H       -4.84466         7.99819       -15.39427
   H       -6.53696         5.05942       -11.70792
   H       -3.66136         5.65506       -16.37842
*
