# ORCA input file
# SCF done       -192.681190327289          0.000946387596
! CAM-B3LYP def2-SVP def2/J RIJCOSX Grid4 TightSCF
%maxcore 5000
%tddft
    Mode sTDDFT
    Ethresh 5.0
    maxcore 5000
end

%pal
  nprocs 6
  end
* xyz 0 1
   C        0.90625        -0.90407        -1.41607
   O       -0.24698        -1.24862        -1.43290
   C        1.41411         0.46879        -1.64372
   C        2.80052         0.51481        -1.41922
   C        3.47768         1.71615        -1.56354
   C        2.75849         2.84570        -1.93460
   C        1.37990         2.78849        -2.15742
   C        0.69614         1.58945        -2.00655
  Br        0.43072         4.34008        -2.66420
  Br        3.68153         4.48276        -2.13285
   C        3.26946        -0.82035        -1.05938
   C        4.57450        -1.17026        -0.84051
   C        5.65558        -0.26222        -0.88890
   N        6.57271         0.42658        -0.90938
   C        5.03779        -2.47297        -0.55250
   N        5.49514        -3.50089        -0.32577
   C        2.11456        -1.70452        -1.05303
   C        2.11009        -3.00580        -0.65871
   C        1.03895        -3.92344        -0.80175
   S        1.00971        -5.42400         0.13955
   C       -0.45039        -5.80059        -0.76027
   N       -0.75374        -4.86557        -1.62860
   N        0.04871        -3.85969        -1.64567
   C       -1.18107        -7.00024        -0.55726
   C       -2.31380        -7.25518        -1.26146
   C       -3.16342        -8.38920        -1.24750
   N       -3.07008        -9.57052        -0.54307
   C       -2.12436        -9.93846         0.48332
   C       -2.43905        -9.25662         1.81288
   C       -4.11618       -10.45489        -0.86860
   O       -4.22458       -11.56859        -0.39336
   C       -4.91025        -9.74213        -1.84332
   C       -4.29616        -8.48910        -2.05536
   C       -5.07913        -7.75782        -3.03169
   O       -4.95140        -6.66387        -3.52886
   N       -6.14199        -8.63732        -3.33847
   C       -7.15791        -8.26989        -4.29385
   C       -6.93198        -8.93509        -5.64966
   C       -6.05254        -9.81628        -2.64416
   C       -7.00212       -10.86293        -2.74704
   C       -6.86880       -12.02708        -2.06216
   C       -7.78871       -13.10988        -2.07175
   S       -7.16133       -14.68545        -1.69444
   C       -8.70933       -15.43011        -1.97150
   C       -9.65780       -14.47743        -2.31886
   C       -9.15221       -13.16951        -2.33806
   C      -10.06645       -11.98467        -2.51266
   C       -9.67458       -10.86470        -1.68220
   N       -9.43398        -9.96351        -1.02298
   C      -11.50243       -12.38164        -2.12891
   C      -11.93236       -13.58398        -2.95505
   C      -11.10410       -14.82012        -2.56440
   C      -11.20921       -15.79163        -3.63378
   N      -11.30275       -16.50954        -4.51759
   C       -8.88325       -16.83800        -1.88869
   C       -8.19413       -17.70907        -1.10710
   C       -8.15709       -19.15995        -1.44294
   O       -8.86971       -19.74890        -2.21663
   C       -7.02253       -19.69591        -0.65624
   C       -6.51850       -18.69303         0.19404
   C       -7.33871       -17.49497         0.04357
   C       -7.48435       -16.50142         0.97441
   C       -8.52261       -15.54965         0.89840
   N       -9.40216       -14.81278         0.86565
   C       -6.69634       -16.39785         2.13940
   N       -6.06901       -16.28051         3.09211
   C       -5.43235       -18.95842         1.00979
   C       -4.86692       -20.22793         0.96808
   C       -5.38148       -21.22334         0.13294
   C       -6.46925       -20.95905        -0.68995
  Br       -4.60164       -22.94362         0.10856
  Br       -3.37354       -20.59307         2.06564
   H        4.53883         1.80214        -1.39535
   H       -0.36842         1.52936        -2.17192
   H        2.99580        -3.41985        -0.19486
   H       -0.77518        -7.67500         0.17824
   H       -2.63488        -6.49204        -1.96049
   H       -1.10904        -9.71871         0.14510
   H       -2.22228       -11.02195         0.60152
   H       -2.45347        -8.17405         1.70878
   H       -1.69267        -9.53004         2.55358
   H       -3.41431        -9.57895         2.16908
   H       -7.08709        -7.18432        -4.40492
   H       -8.14379        -8.51718        -3.88929
   H       -5.96872        -8.63342        -6.05318
   H       -7.70900        -8.62860        -6.34439
   H       -6.94418       -10.01979        -5.56401
   H       -7.84077       -10.70221        -3.40621
   H       -5.96848       -12.18526        -1.48090
   H      -10.05517       -11.65247        -3.56145
   H      -12.17297       -11.53976        -2.30866
   H      -11.53569       -12.62580        -1.06471
   H      -11.79169       -13.36932        -4.01822
   H      -12.99028       -13.79602        -2.79582
   H      -11.51208       -15.26892        -1.64901
   H       -9.58815       -17.28444        -2.58383
   H       -5.01071       -18.20956         1.66124
   H       -6.87257       -21.72089        -1.33885
*
