# ORCA input file
# SCF done       -177.228125221436          0.000951027015
! CAM-B3LYP def2-SVP def2/J RIJCOSX Grid4 TightSCF
%maxcore 5000
%tddft
    Mode sTDDFT
    Ethresh 5.0
    maxcore 5000
end

%pal
  nprocs 6
  end
* xyz 0 1
   C       -1.19989         0.06037        -0.82218
   C       -2.52776         0.32453        -0.95794
   S       -3.47601        -1.09355        -0.69810
   C       -2.05576        -2.06790        -0.40090
  Cl       -2.17628        -3.71807        -0.03967
   C       -0.92757        -1.30917        -0.50196
   C        0.51706        -1.51661        -0.36823
   O        1.09867        -2.55077        -0.13190
   C        1.11935        -0.17392        -0.65039
   C        0.05153         0.78451        -0.90807
   C        0.16219         2.12688        -1.15080
   C       -0.97823         2.92841        -1.37194
   N       -1.89506         3.59268        -1.55654
   C        1.36696         2.85623        -1.19877
   N        2.31374         3.50363        -1.24293
   C        2.44949         0.05312        -0.79083
   C        3.48389        -0.90067        -0.50601
   C        4.57976        -1.08161        -1.37152
   N        5.49946        -1.98467        -1.16507
   C        5.37588        -2.77894        -0.09813
   N        4.43015        -2.62480         0.83220
   C        3.52356        -1.69933         0.64947
   C        6.35298        -3.82908         0.01989
   N        6.40890        -4.76664         1.01692
   C        5.49489        -4.94326         2.12044
   C        4.20632        -5.63317         1.68334
   C        7.48391        -5.66072         0.82689
   O        7.74233        -6.57805         1.57786
   C        8.11529        -5.19661        -0.38634
   C        7.40244        -4.06927        -0.85938
   C        8.05085        -3.62423        -2.07941
   O        7.82928        -2.73187        -2.86008
   N        9.13144        -4.53495        -2.25097
   C       10.01753        -4.37026        -3.37709
   C       11.28699        -3.61060        -2.99725
   C        9.17541        -5.46908        -1.24788
   C       10.05682        -6.56503        -1.04746
   C       11.17574        -6.91263        -1.72455
   C       11.94213        -8.07236        -1.43114
   S       11.47835        -9.25751        -0.23852
   C       12.83580       -10.22867        -0.61020
   C       13.64453        -9.67653        -1.56418
   C       14.92126       -10.30976        -1.99550
   O       15.02695       -11.47065        -2.28078
   O       15.99017        -9.49751        -2.01413
   C       13.12242        -8.44538        -2.04609
   S       13.88104        -7.53253        -3.36349
   C       14.07235        -8.91969        -4.44008
   C       15.25991        -9.30706        -4.90991
   C       15.39493       -10.53327        -5.64506
   C       16.29918       -11.52316        -5.47953
   C       16.00871       -12.81659        -6.19256
   O       15.24299       -12.95709        -7.11480
   C       16.80780       -13.81591        -5.48798
   C       16.97011       -15.16919        -5.51743
   S       18.09565       -15.67462        -4.28188
   C       18.33860       -14.05250        -3.74781
   C       17.59510       -13.17581        -4.47566
   C       17.39185       -11.73859        -4.53496
   C       18.18008       -10.84734        -3.86353
   C       19.16806       -11.28194        -2.95099
   N       19.97743       -11.59671        -2.20205
   C       18.20227        -9.44868        -4.00330
   N       18.30348        -8.30825        -4.09295
  Cl       16.23574       -16.28660        -6.55640
   H       -3.01728         1.24822        -1.19479
   H        2.78476         1.00234        -1.19047
   H        4.68617        -0.49133        -2.27212
   H        2.82384        -1.55108         1.46027
   H        5.26985        -3.97042         2.55944
   H        6.02303        -5.56903         2.84568
   H        3.65621        -5.00630         0.98675
   H        3.58058        -5.81730         2.55179
   H        4.43198        -6.58471         1.20755
   H        9.45838        -3.78400        -4.11284
   H       10.24493        -5.34694        -3.81048
   H       11.02787        -2.60482        -2.67691
   H       11.94775        -3.54203        -3.85698
   H       11.81678        -4.10336        -2.18503
   H        9.75656        -7.18468        -0.20962
   H       11.57002        -6.31828        -2.53455
   H       13.00180       -11.14980        -0.08770
   H       15.77876        -8.57195        -1.81767
   H       13.16210        -9.47736        -4.60529
   H       16.14055        -8.73510        -4.66418
   H       14.59485       -10.77006        -6.34119
   H       19.00335       -13.86795        -2.92784
*
