# ORCA input file
# SCF done       -226.637205797999          0.001237837812
! CAM-B3LYP def2-SVP def2/J RIJCOSX Grid4 TightSCF
%maxcore 5000
%tddft
    Mode sTDDFT
    Ethresh 5.0
    maxcore 5000
end

%pal
  nprocs 6
  end
* xyz 0 1
   C       -0.00803         0.48331        -1.21385
   C        0.70212        -0.62358        -1.58480
   C        1.24098        -1.55991        -0.67686
   N        1.69561        -2.34702         0.02267
   C        1.02693        -0.92157        -2.92603
   N        1.34935        -1.17028        -3.99876
   C       -0.27401         0.93820         0.14287
   C       -0.87904         2.23009         0.08846
   C       -1.23319         2.90550         1.22240
   C       -0.99957         2.31008         2.48153
   C       -0.40115         1.01740         2.54313
   C       -0.04202         0.34221         1.35463
   C       -0.17952         0.43114         3.80587
   C       -0.53132         1.08808         4.95373
   C       -1.12021         2.36010         4.89216
   C       -1.34880         2.95854         3.68269
   C       -1.05700         2.62969        -1.31239
   O       -1.54367         3.65179        -1.74866
   C       -0.56701         1.47630        -2.11691
   C       -0.81367         1.38480        -3.44112
   C       -1.39478         2.46831        -4.18884
   C       -2.64717         2.46056        -4.75322
   N       -3.53271         1.37114        -4.68734
   O       -4.59115         1.45536        -5.27793
   O       -3.17196         0.40073        -4.03591
   C       -2.93403         3.75505        -5.32680
   C       -1.87863         4.56546        -5.07922
   C       -0.85746         3.81824        -4.38423
   C        0.41975         4.21414        -4.06855
   C        1.55188         3.35944        -3.84430
   C        2.66327         4.12852        -3.74245
   C        2.28393         5.51719        -3.85150
   N        3.19719         6.55058        -3.56744
   O        4.35881         6.23067        -3.38935
   O        2.78357         7.69575        -3.47267
   C        0.91352         5.60184        -4.04710
   C        0.06981         6.74437        -4.09526
   C        0.37135         7.89523        -4.74995
   C       -0.39565         9.08499        -4.81280
   N       -1.30458         9.57647        -3.90826
   C       -1.54496         9.11210        -2.55953
   C       -0.29371         9.22083        -1.69345
   C       -1.84749        10.81197        -4.33262
   O       -2.64495        11.45504        -3.68665
   C       -1.23044        11.04986        -5.62047
   C       -0.33869         9.99075        -5.87548
   C        0.26801        10.22281        -7.16790
   O        1.08986         9.60993        -7.80858
   N       -0.31744        11.43745        -7.61362
   C        0.11298        12.00539        -8.86909
   C       -0.69607        11.46040       -10.04456
   C       -1.21799        11.92952        -6.70642
   C       -2.01731        13.10641        -6.76539
   C       -2.34519        13.84573        -7.84744
   C       -3.16210        15.03472        -7.83060
   C       -3.62610        15.54373        -9.04501
   C       -4.40005        16.68941        -9.09456
   N       -4.77576        17.16777       -10.40228
   O       -4.75130        16.36765       -11.31272
   O       -5.07503        18.33695       -10.52036
   C       -4.74710        17.39433        -7.92721
   C       -4.26016        16.88074        -6.71570
   C       -3.49613        15.73896        -6.66261
   C       -5.59600        18.56323        -7.93809
   C       -5.43963        19.60688        -7.09530
   C       -6.30067        20.73792        -7.14704
   C       -6.14365        21.86315        -6.39888
   C       -6.97785        23.05550        -6.43546
   C       -8.20604        23.17445        -7.02840
   C       -8.97700        24.35686        -7.01743
   N       -9.65165        25.28473        -7.04507
   C       -8.89665        22.13661        -7.69087
   N       -9.52981        21.33951        -8.22148
   C       -6.29849        24.09416        -5.67115
   C       -5.12439        23.53766        -5.08656
   C       -5.00459        22.12271        -5.47215
   O       -4.15086        21.34072        -5.11054
   C       -4.28484        24.28092        -4.30669
   C       -4.58314        25.64190        -4.07532
   C       -5.75429        26.20721        -4.65877
   C       -6.60643        25.41264        -5.45902
   C       -6.04157        27.56727        -4.42271
   C       -5.21222        28.33390        -3.65014
   C       -4.05840        27.77693        -3.07805
   C       -3.75102        26.45954        -3.28522
   H       -1.69072         3.88171         1.15923
   H        0.40132        -0.63825         1.43040
   H        0.27453        -0.54780         3.84845
   H       -0.35803         0.63061         5.91607
   H       -1.39260         2.86307         5.80777
   H       -1.80265         3.93724         3.62945
   H       -0.65876         0.45384        -3.97395
   H       -3.84552         3.98634        -5.84383
   H       -1.75556         5.57140        -5.43030
   H        1.51628         2.28721        -3.84842
   H        3.67656         3.80634        -3.59439
   H       -0.88874         6.62253        -3.61090
   H        1.24836         7.92419        -5.38315
   H       -1.92594         8.08867        -2.57132
   H       -2.33048         9.76375        -2.16463
   H        0.53050         8.65156        -2.11636
   H       -0.50620         8.84373        -0.69718
   H        0.01490        10.26024        -1.61248
   H        1.15901        11.71053        -8.99769
   H        0.05955        13.09405        -8.80751
   H       -0.52862        10.39035       -10.13568
   H       -0.37712        11.94047       -10.96553
   H       -1.76232        11.62885        -9.90793
   H       -2.43682        13.35973        -5.80044
   H       -2.03091        13.53813        -8.83264
   H       -3.38276        15.05247        -9.97645
   H       -4.51882        17.39155        -5.80149
   H       -3.14192        15.38868        -5.70612
   H       -6.38183        18.60586        -8.68135
   H       -4.62236        19.63257        -6.38949
   H       -7.11329        20.68723        -7.86063
   H       -3.40106        23.83531        -3.87458
   H       -7.48130        25.87169        -5.89128
   H       -6.93116        27.99142        -4.86471
   H       -5.44060        29.37457        -3.47555
   H       -3.41440        28.39714        -2.47261
   H       -2.86435        26.02526        -2.84693
*
