# ORCA input file
# SCF done       -155.817234323997          0.000953546387
! CAM-B3LYP def2-SVP def2/J RIJCOSX Grid4 TightSCF
%maxcore 5000
%tddft
    Mode sTDDFT
    Ethresh 5.0
    maxcore 5000
end

%pal
  nprocs 6
  end
* xyz 0 1
   C        3.07618         3.83322         1.31991
   C        3.27977         3.97754         2.66912
   C        4.36076         3.39727         3.36806
   N        5.21427         2.96004         3.99886
   C        2.46992         4.69298         3.57614
   N        1.87245         5.24139         4.39128
   C        3.91945         3.04725         0.42745
   C        3.35800         3.08920        -0.87976
   C        3.92502         2.43491        -1.93520
   C        5.10781         1.69140        -1.72859
   C        5.68063         1.64603        -0.42456
   C        5.06954         2.33466         0.64822
   C        6.86165         0.90127        -0.22829
   C        7.44808         0.23216        -1.26796
   C        6.88268         0.27767        -2.55115
   C        5.73736         0.99215        -2.77680
   C        2.13983         3.91294        -0.87010
   O        1.42685         4.13896        -1.82566
   C        1.99002         4.39564         0.52657
   C        1.04846         5.24119         1.03730
   C       -0.07495         5.87382         0.45950
   S       -1.00480         6.90169         1.53317
   C       -2.13707         7.29359         0.29146
   C       -1.79230         6.64798        -0.90429
   C       -0.64080         5.85708        -0.80150
   C       -2.51344         6.76272        -2.10584
   N       -3.08568         6.84120        -3.09690
   C       -3.21337         8.15506         0.62400
   C       -4.21542         8.55949        -0.19304
   C       -5.25738         9.40935         0.28076
   S       -6.56393         9.92478        -0.74148
   C       -7.31276        10.82165         0.55308
   C       -8.56267        11.55567         0.33711
   O       -9.10756        12.19034         1.20275
   O       -9.09236        11.49558        -0.89641
   C       -6.56327        10.71341         1.71979
   C       -5.41086         9.91864         1.54427
   C       -6.77981        11.25269         3.03639
   O       -5.83120        10.89950         3.93547
   C       -6.18223        11.47099         5.09323
   N       -7.29220        12.16814         4.99729
   C       -7.68741        12.04621         3.71318
   C       -5.31104        11.22214         6.19371
   N       -5.48572        11.65860         7.47492
   C       -6.55478        12.50514         7.94629
   C       -6.30286        13.96945         7.60134
   C       -4.43835        11.22060         8.31383
   O       -4.38359        11.48197         9.49805
   C       -3.57488        10.45406         7.44261
   C       -4.14695        10.47135         6.13686
   C       -3.28242         9.71699         5.25933
   O       -3.33798         9.44829         4.07209
   N       -2.23045         9.29775         6.09195
   C       -1.13991         8.50464         5.57276
   C       -1.29796         7.01911         5.88511
   C       -2.39726         9.72396         7.39003
   C       -1.46455         9.43352         8.44137
   C       -1.64490         9.84092         9.69956
   H        3.47458         2.48472        -2.91544
   H        5.53202         2.27925         1.62047
   H        7.29383         0.86932         0.76106
   H        8.35213        -0.33575        -1.10742
   H        7.35854        -0.25679        -3.35962
   H        5.29680         1.03054        -3.76227
   H        1.16072         5.49206         2.08500
   H       -0.23222         5.29059        -1.61939
   H       -3.20462         8.49767         1.65012
   H       -4.26048         8.24250        -1.22463
   H       -8.57697        10.96321        -1.51719
   H       -4.72089         9.73736         2.34906
   H       -8.57378        12.51720         3.34556
   H       -6.59260        12.37494         9.03103
   H       -7.49122        12.17376         7.49315
   H       -5.35129        14.29675         8.01375
   H       -7.09514        14.58306         8.01936
   H       -6.29315        14.10257         6.52295
   H       -0.19396         8.88375         5.96804
   H       -1.14825         8.65141         4.48885
   H       -1.34801         6.85024         6.95834
   H       -0.45087         6.46965         5.48341
   H       -2.21059         6.63769         5.43342
   H       -0.58831         8.85988         8.17363
   H       -2.51124        10.41140         9.99023
   H       -0.92771         9.60790        10.46766
*
