# ORCA input file
# SCF done       -238.815003755488          0.000990393323
! CAM-B3LYP def2-SVP def2/J RIJCOSX Grid4 TightSCF
%maxcore 5000
%tddft
    Mode sTDDFT
    Ethresh 5.0
    maxcore 5000
end

%pal
  nprocs 6
  end
* xyz 0 1
   C        0.87358         1.58720        -2.68925
   C        0.27138         1.58088        -3.91753
   C       -0.41409         0.46750        -4.44758
   N       -0.98371        -0.40867        -4.92073
   C        0.33990         2.66248        -4.81866
   N        0.40951         3.50606        -5.59482
   C        1.04375         0.44629        -1.80398
   C        2.09101         0.73557        -0.87791
   C        2.48465        -0.17304         0.06297
   C        1.83483        -1.42590         0.12530
   C        0.77719        -1.71303        -0.78689
   C        0.39240        -0.75659        -1.75341
   C        0.13160        -2.96370        -0.70601
   C        0.51184        -3.88889         0.22764
   C        1.55393        -3.60632         1.12371
   C        2.20136        -2.40170         1.07341
   C        2.59047         2.09871        -1.11171
   O        3.51159         2.67409        -0.58186
   C        1.66047         2.67354        -2.13175
   C        1.56795         4.01168        -2.28901
   C        0.53496         4.76200        -2.93631
   C       -0.83935         4.67241        -2.79759
   N       -1.59415         3.78054        -2.01501
   O       -2.78950         3.99509        -1.92251
   O       -1.02460         2.85068        -1.46035
   C       -1.46769         5.74461        -3.53531
   C       -0.50361         6.50702        -4.09664
   C        0.78473         5.95090        -3.76087
   C        2.01680         6.33673        -4.24032
   C        3.15702         5.48844        -4.39459
   C        4.07591         6.12052        -5.17853
   C        3.59600         7.43151        -5.48951
   N        4.36437         8.38367        -6.18762
   O        5.36946         7.98400        -6.74699
   O        3.99483         9.54597        -6.18224
   C        2.34454         7.61941        -4.90499
   C        1.59680         8.80795        -4.89157
   C        0.73357         9.17613        -3.89092
   C       -0.06569        10.32702        -3.96652
   N       -0.80849        10.83143        -2.92308
   C       -0.81086        10.34902        -1.56174
   C        0.45743        10.75166        -0.81504
   C       -1.54670        11.95818        -3.29905
   O       -2.26993        12.58169        -2.54581
   C       -1.24326        12.13610        -4.70679
   C       -0.33481        11.13587        -5.08408
   C       -0.07851        11.27155        -6.50784
   O        0.60237        10.63177        -7.27492
   N       -0.85217        12.38530        -6.89100
   C       -0.89646        12.82142        -8.26665
   C       -2.11948        12.27022        -8.99520
   C       -1.56663        12.90373        -5.84290
   C       -2.46379        13.98016        -5.93932
   C       -3.14619        14.44639        -4.84699
   C       -4.09884        15.46957        -4.87039
   S       -4.57913        16.28940        -6.32120
   C       -5.68372        17.33066        -5.48856
   C       -5.74076        16.99761        -4.11908
   C       -4.82590        15.96607        -3.76357
   C       -4.72766        15.53691        -2.42892
   C       -5.54690        16.10374        -1.48793
   C       -5.46489        15.68747        -0.04320
   F       -4.48859        14.80107         0.18483
   F       -5.23073        16.72784         0.77189
   F       -6.60412        15.11408         0.38182
   C       -6.52347        17.06898        -1.85257
   C       -7.41370        17.60029        -0.88738
   N       -8.15002        18.05157        -0.13574
   C       -6.62898        17.49962        -3.15752
   C       -6.39095        18.30132        -6.22631
   C       -6.81641        19.52097        -5.77583
   C       -7.68097        20.43727        -6.49295
   C       -8.47392        20.12141        -7.56659
   C       -9.32525        21.03932        -8.21654
   N      -10.03127        21.73971        -8.78924
   C       -8.56541        18.83746        -8.14278
   N       -8.69286        17.81197        -8.64376
   C       -7.63026        21.72349        -5.81178
   C       -6.77952        21.60208        -4.67452
   C       -6.24801        20.23447        -4.59716
   O       -5.44486        19.80245        -3.79631
   C       -6.54387        22.65305        -3.83485
   C       -7.16366        23.89529        -4.09685
   C       -8.01156        24.02616        -5.23535
   C       -8.23392        22.92110        -6.08898
   C       -8.62072        25.27140        -5.48920
   C       -8.40594        26.33754        -4.65810
   C       -7.57246        26.20750        -3.53727
   C       -6.96468        25.01218        -3.26200
   H        3.28036         0.06158         0.75446
   H       -0.42091        -0.99000        -2.42255
   H       -0.66866        -3.17707        -1.39911
   H        0.01149        -4.84410         0.28127
   H        1.84028        -4.34763         1.85461
   H        3.00372        -2.17885         1.76141
   H        2.35888         4.59507        -1.82418
   H       -2.53199         5.85989        -3.60834
   H       -0.65204         7.32235        -4.77578
   H        3.21314         4.47415        -4.05200
   H        5.01790         5.73593        -5.52196
   H        1.78684         9.50341        -5.70213
   H        0.68007         8.58070        -2.98986
   H       -0.93614         9.26241        -1.56208
   H       -1.68159        10.80298        -1.08103
   H        1.34303        10.35005        -1.30260
   H        0.41721        10.37619         0.20333
   H        0.54177        11.83494        -0.78109
   H        0.01269        12.43712        -8.73688
   H       -0.87816        13.91367        -8.30138
   H       -2.09501        11.18346        -8.99027
   H       -2.11618        12.61125       -10.02633
   H       -3.04130        12.59898        -8.52020
   H       -2.62441        14.43985        -6.90470
   H       -2.96009        13.98579        -3.88577
   H       -4.02252        14.76933        -2.14898
   H       -7.40291        18.19849        -3.42988
   H       -6.54995        18.05807        -7.27052
   H       -5.89660        22.53557        -2.97852
   H       -8.87515        23.05260        -6.94614
   H       -9.26292        25.36622        -6.35240
   H       -8.87824        27.28701        -4.86011
   H       -7.41422        27.05887        -2.89264
   H       -6.32248        24.90604        -2.40020
*
