# ORCA input file
# SCF done       -182.124567196877          0.000685957241
! CAM-B3LYP def2-SVP def2/J RIJCOSX Grid4 TightSCF
%maxcore 5000
%tddft
    Mode sTDDFT
    Ethresh 5.0
    maxcore 5000
end

%pal
  nprocs 6
  end
* xyz 0 1
   C       -6.51979        -1.89351        -3.41274
   N       -5.80708        -1.57560        -2.29939
   C       -5.52438        -2.46009        -1.19659
   C       -4.46016        -3.49173        -1.56013
   C       -5.31082        -0.25611        -2.36561
   O       -4.64162         0.25418        -1.48490
   C       -5.79103         0.23498        -3.63205
   C       -6.53747        -0.81561        -4.25361
   C       -7.02622        -0.32235        -5.52622
   O       -7.68576        -0.83293        -6.40238
   N       -6.54267         1.00096        -5.58705
   C       -6.85258         1.85715        -6.70573
   C       -7.99326         2.82149        -6.38896
   C       -5.81571         1.34342        -4.46874
   C       -5.22839         2.61681        -4.26965
   C       -4.49291         2.91780        -3.16726
   C       -3.91941         4.18189        -2.92847
   S       -4.14915         5.57089        -3.97943
   C       -3.18217         6.63144        -2.98145
   C       -2.70987         5.90864        -1.89880
   C       -3.11977         4.56407        -1.86680
   S       -2.47506         3.77815        -0.45731
   C       -1.68852         5.30993         0.01039
   S       -0.77990         5.52624         1.33172
   O       -1.92953         6.29414        -0.86411
   C       -3.00832         7.99297        -3.31840
   C       -2.24468         8.85823        -2.60171
   C       -2.10737        10.22928        -2.91170
   S       -1.05411        11.25957        -1.96590
   C       -1.44041        12.69629        -2.88240
   C       -2.34801        12.35338        -3.87139
   C       -2.71114        10.99542        -3.89326
   S       -3.84614        10.71641        -5.18429
   C       -3.76137        12.44559        -5.61791
   S       -4.58002        13.13744        -6.82920
   O       -2.93265        13.12220        -4.81950
   C       -0.86119        13.94816        -2.57117
   C       -1.19537        15.10971        -3.19114
   C       -0.61630        16.36272        -2.89197
   S       -1.19970        17.82217        -3.66312
   C       -0.06400        18.85568        -2.83167
   C        0.72179        18.06572        -2.00522
   C        0.41508        16.69546        -2.02989
   S        1.47059        15.84142        -0.93808
   C        2.26005        17.38317        -0.51329
   S        3.47814        17.54859         0.53915
   O        1.72922        18.41630        -1.17174
   C       -0.05311        20.25491        -3.02653
   C        0.85724        21.08196        -2.44505
   C        0.82914        22.48641        -2.61697
   N        1.75609        23.34091        -2.06379
   C        2.87062        22.97425        -1.22329
   C        2.43738        22.68498         0.21171
   C        1.48657        24.68546        -2.37212
   O        2.17549        25.60987        -1.98971
   C        0.29346        24.63269        -3.18877
   C       -0.08083        23.26785        -3.32366
   C       -1.27311        23.21339        -4.13333
   O       -1.95468        22.28489        -4.52681
   N       -1.54581        24.55906        -4.44097
   C       -2.72090        24.92202        -5.19473
   C       -3.84818        25.40833        -4.28693
   C       -0.62445        25.41100        -3.88061
   C       -0.66464        26.83555        -4.04283
   C        0.22621        27.65490        -3.47937
   H       -6.97155        -2.86188        -3.52295
   H       -6.44903        -2.95827        -0.88999
   H       -5.16833        -1.82856        -0.37825
   H       -4.79217        -4.11091        -2.39062
   H       -4.26019        -4.13182        -0.70555
   H       -3.53736        -2.99244        -1.84516
   H       -7.15332         1.19120        -7.51960
   H       -5.95428         2.40232        -7.00933
   H       -8.89010         2.26240        -6.13428
   H       -8.20381         3.43923        -7.25743
   H       -7.73889         3.46844        -5.55226
   H       -5.37290         3.37623        -5.02591
   H       -4.32201         2.16732        -2.40472
   H       -3.53395         8.33208        -4.19993
   H       -1.70347         8.50893        -1.73488
   H       -0.12261        13.94381        -1.78222
   H       -1.95459        15.11091        -3.95918
   H       -0.82312        20.66087        -3.66897
   H        1.63570        20.66486        -1.82406
   H        3.55005        23.83127        -1.23384
   H        3.38529        22.11107        -1.65453
   H        1.96761        23.56568         0.64275
   H        3.30538        22.42413         0.81059
   H        1.72887        21.86064         0.24909
   H       -3.03674        24.01331        -5.71505
   H       -2.46278        25.68121        -5.93797
   H       -4.11950        24.62561        -3.58288
   H       -4.72129        25.65639        -4.88389
   H       -3.54492        26.28889        -3.72488
   H       -1.46031        27.23448        -4.65636
   H        1.02777        27.28033        -2.86521
   H        0.17215        28.72004        -3.62431
*
