# ORCA input file
# SCF done       -244.578705037820          0.000993195311
! CAM-B3LYP def2-SVP def2/J RIJCOSX Grid4 TightSCF
%maxcore 5000
%tddft
    Mode sTDDFT
    Ethresh 5.0
    maxcore 5000
end

%pal
  nprocs 6
  end
* xyz 0 1
   C        1.65114         4.28130         5.06824
   N        1.84967         5.47159         4.47288
   C        3.11401         6.01216         4.03902
   C        3.90948         6.57292         5.21460
   C        0.63055         6.20480         4.36304
   O        0.55597         7.27802         3.80872
   C       -0.34748         5.34097         4.98587
   C        0.31354         4.15653         5.38713
   C       -0.68053         3.24853         5.94070
   O       -0.59357         2.13822         6.40546
   N       -1.89301         3.95214         5.80690
   C       -3.11349         3.42063         6.36480
   C       -3.35802         3.96855         7.76888
   C       -1.72078         5.20607         5.27080
   C       -2.74825         6.11844         5.00510
   C       -2.47519         7.43564         4.69671
   C       -3.35979         8.42158         4.26677
   C       -3.11860         9.82433         4.39557
   N       -2.06638        10.45777         5.07991
   O       -2.04101        11.67730         5.04350
   O       -1.24862         9.77982         5.67814
   C       -4.16850        10.52431         3.80516
   C       -5.09113         9.60100         3.30923
   C       -4.64890         8.30547         3.58541
   C       -5.31191         7.11658         3.17776
   C       -4.75602         5.91543         2.75842
   C       -5.77565         5.01167         2.41654
   C       -7.00066         5.62491         2.60230
   N       -8.23902         5.02797         2.44995
   O       -8.29162         3.84726         2.15353
   O       -9.24842         5.71670         2.64552
   C       -6.77054         6.97768         3.07611
   C       -7.68742         7.88128         3.47754
   C       -9.12319         7.84116         3.35379
   C       -9.95593         7.86813         4.42956
   C      -11.37562         8.15452         4.47939
   N      -12.15594         8.63774         3.42400
   O      -13.28943         9.01249         3.68858
   O      -11.66356         8.70493         2.30920
   C      -11.79677         8.02444         5.78146
   C      -10.68624         7.65207         6.58461
   C       -9.57318         7.56247         5.79399
   C       -8.21247         7.22806         6.17682
   C       -7.62897         5.89877         6.14722
   C       -6.33739         5.96036         6.54784
   C       -6.04847         7.34039         6.84536
   N       -4.90959         7.87800         7.20998
   O       -4.87648         9.25236         7.42574
   O       -3.84253         7.31646         7.35505
   C       -7.25265         8.09239         6.61922
   C       -7.23398         9.56471         6.79400
   C       -6.10234         9.91008         7.77253
   C       -5.88953        11.37788         7.68033
   C       -6.23927        12.07738         6.47453
   N       -6.76993        11.51000         5.42411
   O       -7.08926        12.00277         4.36413
   O       -6.98781        10.12466         5.50101
   C       -6.01717        13.48442         6.69221
   C       -5.61672        13.62740         7.97247
   C       -5.53703        12.31730         8.61354
   C       -5.20085        12.14871        10.00124
   C       -4.21234        11.36455        10.55424
   C       -4.11085        11.66083        11.93171
   C       -5.04591        12.63420        12.24958
   N       -5.25421        13.14685        13.53537
   O       -4.52205        12.75550        14.42760
   O       -6.15071        13.96486        13.70161
   C       -5.80390        12.93952        11.06643
   C       -6.96989        13.68550        10.98065
   C       -7.86426        13.53644         9.92911
   C       -9.02751        14.22236         9.59931
   N       -9.63036        15.32995        10.14156
   C       -9.15839        16.14175        11.24142
   C       -7.96003        16.99687        10.84168
   C      -10.80432        15.68968         9.44584
   O      -11.49986        16.63279         9.73953
   C      -10.92081        14.69268         8.39155
   C       -9.83513        13.82190         8.50591
   C       -9.94594        12.83683         7.46160
   O       -9.23590        11.89362         7.15445
   N      -11.12794        13.18101         6.76843
   C      -11.58528        12.35205         5.67596
   C      -12.67317        11.38240         6.13022
   C      -11.72333        14.28552         7.31276
   C      -12.90857        14.98734         6.92492
   C      -13.80712        14.70077         5.97607
   H        2.45695         3.58773         5.22441
   H        2.88423         6.81201         3.33038
   H        3.68177         5.22861         3.52995
   H        3.34631         7.36349         5.70400
   H        4.84884         6.98507         4.85799
   H        4.12325         5.79301         5.94215
   H       -2.98426         2.33556         6.40697
   H       -3.94703         3.64839         5.69452
   H       -2.55186         3.65668         8.42817
   H       -4.29281         3.57943         8.16435
   H       -3.39155         5.05615         7.75862
   H       -3.77184         5.78701         5.09610
   H       -1.45937         7.77923         4.85893
   H       -4.24115        11.59403         3.74617
   H       -5.95325         9.86449         2.72729
   H       -3.70567         5.71974         2.65281
   H       -5.63768         4.00755         2.06027
   H       -7.32897         8.79643         3.93357
   H       -9.55661         8.04671         2.37782
   H      -12.80011         8.17985         6.13121
   H      -10.72500         7.47149         7.64279
   H       -8.17374         5.02177         5.85469
   H       -5.64454         5.15274         6.66592
   H       -8.18219         9.96575         7.17122
   H       -6.38396         9.60048         8.78883
   H       -6.16598        14.24087         5.94792
   H       -5.35836        14.54157         8.47112
   H       -3.57843        10.68721        10.01406
   H       -3.42320        11.21787        12.62739
   H       -7.19637        14.32788        11.81958
   H       -7.67625        12.71867         9.24706
   H       -8.92054        15.50308        12.09488
   H       -9.99660        16.78907        11.51460
   H       -7.13405        16.37896        10.49786
   H       -7.62673        17.57634        11.69736
   H       -8.23831        17.68122        10.04380
   H      -10.71139        11.78849         5.33621
   H      -11.92495        12.98691         4.85591
   H      -12.26638        10.69486         6.86821
   H      -13.04194        10.80930         5.28342
   H      -13.50837        11.91310         6.58079
   H      -13.05586        15.87614         7.52711
   H      -13.76743        13.83480         5.34158
   H      -14.64358        15.35988         5.81769
*
