# ORCA input file
# SCF done       -124.061465206891          0.000275592164
! CAM-B3LYP def2-SVP def2/J RIJCOSX Grid4 TightSCF
%maxcore 5000
%tddft
    Mode sTDDFT
    Ethresh 5.0
    maxcore 5000
end

%pal
  nprocs 6
  end
* xyz 0 1
   C       -3.39673        -1.53576         2.01546
   N       -4.39623        -0.74970         2.49896
   C       -5.49810        -1.18877         3.31694
   C       -5.06585        -1.43767         4.75958
   C       -4.20789         0.60284         2.13934
   O       -4.97780         1.49119         2.46282
   C       -2.99230         0.59438         1.37030
   C       -2.51802        -0.75542         1.31811
   C       -1.30286        -0.77198         0.52869
   O       -0.54307        -1.66129         0.21615
   N       -1.12469         0.57236         0.14933
   C       -0.02486         0.96515        -0.69691
   C       -0.45065         1.11308        -2.15598
   C       -2.12255         1.39205         0.63478
   C       -2.18443         2.78055         0.37726
   C       -3.14275         3.59302         0.90572
   C       -3.26532         4.96157         0.59010
   S       -2.43587         5.61155        -0.79374
   C       -3.22680         7.13634        -0.66431
   C       -4.09052         7.16896         0.44434
   C       -4.08632         5.94349         1.17844
   C       -4.85786         5.84213         2.36668
   C       -4.75958         4.69445         3.26628
   C       -5.79031         4.14806         3.89464
   C       -5.66144         6.91201         2.70199
   C       -5.70299         8.08811         1.94048
   C       -4.91101         8.24095         0.83541
   C       -3.00090         8.15131        -1.61680
   S       -1.89621         7.95117        -2.98037
   C       -2.38218         9.58539        -3.43717
   N       -3.24266        10.09631        -2.60774
   N       -3.58100         9.32274        -1.61753
   C       -1.87426        10.22556        -4.60474
   C       -2.27485        11.45687        -4.97494
   C       -1.83780        12.16875        -6.14642
   C       -0.88172        11.70973        -7.06582
   N       -0.53257        12.39403        -8.13157
   C       -1.11841        13.57473        -8.33183
   N       -2.02750        14.11582        -7.52045
   C       -2.37556        13.42853        -6.45706
   C       -0.73880        14.32672        -9.52205
   C        0.20068        13.84554       -10.43810
   N        0.53884        14.52686       -11.51723
   C       -0.05445        15.69474       -11.69619
   N       -0.95305        16.25121       -10.90180
   C       -1.29473        15.57376        -9.82154
   H       -3.38940        -2.59495         2.19387
   H       -5.92621        -2.09856         2.88546
   H       -6.24395        -0.38972         3.28312
   H       -4.30968        -2.21829         4.80483
   H       -5.92161        -1.74522         5.35402
   H       -4.65196        -0.52788         5.18754
   H        0.71862         0.16714        -0.61381
   H        0.41276         1.89491        -0.32215
   H       -0.83595         0.16602        -2.52538
   H        0.40425         1.40091        -2.76170
   H       -1.22664         1.86790        -2.26319
   H       -1.43009         3.21065        -0.26798
   H       -3.88422         3.17295         1.57194
   H       -3.76034         4.31326         3.43149
   H       -6.80081         4.47972         3.72344
   H       -5.66370         3.31746         4.56501
   H       -6.24988         6.85295         3.60528
   H       -6.34942         8.89321         2.25574
   H       -4.89368         9.15006         0.25797
   H       -1.15853         9.65872        -5.18151
   H       -2.99932        11.96287        -4.35062
   H       -0.37762        10.76027        -6.94028
   H       -3.11747        13.88892        -5.81544
   H        0.68311        12.88941       -10.28710
   H        0.22363        16.25156       -12.58185
   H       -2.02940        16.02419        -9.16813
*
