# ORCA input file
# SCF done       -231.999530656996          0.000309416731
! CAM-B3LYP def2-SVP def2/J RIJCOSX Grid4 TightSCF
%maxcore 5000
%tddft
    Mode sTDDFT
    Ethresh 5.0
    maxcore 5000
end

%pal
  nprocs 6
  end
* xyz 0 1
   C        0.25656         2.44250         0.18972
   N       -0.18741         2.88274         1.39459
   C        0.59318         2.97647         2.60173
   C        0.79340         1.60842         3.24903
   C       -1.57570         3.18116         1.35724
   O       -2.19790         3.58666         2.31834
   C       -1.94376         2.89549        -0.00481
   C       -0.78747         2.43890        -0.69811
   C       -1.18506         2.16695        -2.06830
   O       -0.56372         1.77523        -3.02959
   N       -2.56394         2.46815        -2.10188
   C       -3.29226         2.36014        -3.34338
   C       -4.03666         1.03178        -3.45499
   C       -3.02583         2.89843        -0.88287
   C       -4.31864         3.28758        -0.46240
   C       -5.50787         3.23989        -1.12292
   C       -6.72740         3.69717        -0.56913
   C       -7.84378         4.14684        -1.29992
   N       -8.05092         4.11891        -2.67440
   O       -9.07845         4.63216        -3.10530
   O       -7.21070         3.59834        -3.40251
   C       -8.77804         4.73235        -0.39957
   C       -8.25415         4.69446         0.86131
   C       -7.00682         4.00132         0.82367
   C       -6.33300         3.49863         1.94121
   C       -5.71569         2.23918         2.04161
   C       -5.34402         2.03054         3.34538
   C       -5.63762         3.18198         4.12525
   N       -5.34336         3.18807         5.47844
   O       -5.62277         4.16969         6.17884
   O       -4.81897         2.19031         5.95478
   C       -6.23262         4.14982         3.27244
   C       -6.46431         5.51552         3.37591
   C       -6.12761         6.29281         4.46939
   N       -6.13897         7.60585         4.53379
   N       -5.81234         8.32566         5.66852
   C       -5.09085         9.49821         5.20020
   C       -3.56727         9.29503         5.15940
   C       -3.11750         7.97614         4.53064
   C       -2.92654        10.54951         4.52946
   C       -3.66364        11.06065         3.23498
   N       -2.67572        11.22871         2.18475
   S       -1.44840        10.06975         2.49334
   N       -1.53611        10.28883         4.20131
   C       -4.74837        10.10974         2.70796
   C       -5.46048        10.79905         1.54444
   C       -5.73893         9.75083         3.81909
   N       -6.47181         8.50087         3.51803
   N       -7.82710         8.48550         3.30284
   N       -8.63693         9.39167         4.01095
   C       -9.94739         9.27354         3.38271
   C      -10.56834        10.63971         3.08729
   C       -9.71029        11.53569         2.18928
   C      -11.98853        10.38473         2.54323
   C      -12.04711         9.18934         1.52424
   N      -12.86281         9.60491         0.39843
   S      -12.56996        11.27782         0.20127
   N      -12.52251        11.57705         1.90506
   C      -10.67788         8.76775         0.96746
   C      -10.88751         7.56080         0.05706
   C       -9.71441         8.42445         2.10116
   N       -8.26567         8.56354         1.91022
   C       -7.40264         8.12520         0.98697
   C       -7.44251         8.06816        -0.38007
   C       -6.47618         7.33269        -1.17233
   C       -5.27715         6.78846        -0.77021
   C       -4.36585         6.17288        -1.65038
   N       -3.56535         5.68190        -2.31227
   C       -4.74842         6.86139         0.52721
   N       -4.27850         6.92362         1.57653
   C       -6.98388         7.29495        -2.53758
   C       -8.11235         8.15961        -2.62929
   C       -8.33117         8.78654        -1.31809
   O       -8.96196         9.79838        -1.07677
   C       -8.82007         8.30130        -3.78579
   C       -8.44733         7.53866        -4.91593
   C       -7.32029         6.67228        -4.83325
   C       -6.58111         6.57848        -3.63294
   C       -6.97387         5.89301        -5.95429
   C       -7.70595         5.96728        -7.10782
   C       -8.80909         6.82862        -7.19338
   C       -9.17212         7.59789        -6.12073
   H        1.28582         2.16980         0.04495
   H        0.03695         3.63013         3.27892
   H        1.55921         3.43471         2.36977
   H       -0.16937         1.17362         3.50541
   H        1.38136         1.71121         4.15666
   H        1.31164         0.93428         2.57037
   H       -2.54334         2.42037        -4.13848
   H       -3.96840         3.21163        -3.43613
   H       -3.32486         0.21062        -3.49579
   H       -4.63585         1.02282        -4.36099
   H       -4.69410         0.87628        -2.60265
   H       -4.30529         3.68320         0.54577
   H       -5.56671         2.91795        -2.15081
   H       -9.73710         5.10114        -0.70598
   H       -8.75711         4.99050         1.76308
   H       -5.63362         1.53134         1.23967
   H       -4.90092         1.14149         3.75335
   H       -6.85404         5.99871         2.49530
   H       -5.80028         5.78419         5.37201
   H       -5.32144         7.76202         6.35474
   H       -5.31681        10.32744         5.87958
   H       -3.22206         9.27503         6.20091
   H       -3.53972         7.78626         3.55169
   H       -3.36853         7.14020         5.18020
   H       -2.03660         7.99512         4.42946
   H       -2.96660        11.34704         5.28163
   H       -4.12818        12.03134         3.44390
   H       -2.29335        12.16867         2.15211
   H       -0.91859        11.03494         4.50293
   H       -4.26154         9.20874         2.33082
   H       -5.94412        11.71746         1.87545
   H       -6.21047        10.15343         1.09852
   H       -4.73212        11.05340         0.78041
   H       -6.45147        10.57721         3.91217
   H       -8.31546        10.35603         3.88329
   H      -10.60441         8.72258         4.06607
   H      -10.69181        11.16236         4.04340
   H       -9.25743        11.00195         1.36050
   H       -8.92191        12.01735         2.76738
   H      -10.33867        12.32189         1.78169
   H      -12.62149        10.13026         3.40251
   H      -12.51573         8.32193         2.00223
   H      -13.85062         9.41242         0.53362
   H      -13.44526        11.81760         2.25049
   H      -10.30523         9.59146         0.35971
   H      -11.27639         6.71458         0.62226
   H       -9.95346         7.26870        -0.41111
   H      -11.59758         7.81596        -0.72384
   H       -9.87863         7.36831         2.37104
   H       -6.47544         7.79298         1.44281
   H       -9.67268         8.96237        -3.83190
   H       -5.73641         5.90872        -3.60244
   H       -6.13201         5.22179        -5.87516
   H       -7.44153         5.35814        -7.95928
   H       -9.37592         6.87483        -8.11169
   H      -10.02689         8.25612        -6.17916
*
