# ORCA input file
# SCF done       -183.554463358463          0.000724975077
! CAM-B3LYP def2-SVP def2/J RIJCOSX Grid4 TightSCF
%maxcore 5000
%tddft
    Mode sTDDFT
    Ethresh 5.0
    maxcore 5000
end

%pal
  nprocs 6
  end
* xyz 0 1
   C       -5.40471         0.14335         0.32238
   S       -3.92119        -0.58820         0.72735
   C       -4.21659        -1.90775        -0.36148
   C       -5.46073        -1.78239        -0.96030
   C       -6.13857        -0.60398        -0.56068
   N       -7.49708        -0.28396        -0.90236
   O       -7.80703         0.88321        -0.86774
   O       -8.22977        -1.21245        -1.15199
   N       -6.00116        -2.73930        -1.88135
   O       -5.90539        -3.91165        -1.57873
   O       -6.47857        -2.31877        -2.90559
   C       -3.25179        -2.93178        -0.63324
   C       -2.47202        -3.65023         0.26304
   N       -2.29777        -3.39458         1.62814
   O       -2.60801        -2.28177         2.04446
   O       -1.84049        -4.27755         2.32421
   C       -1.86737        -4.76370        -0.41517
   C       -2.26276        -4.74277        -1.71272
   C       -3.09479        -3.58672        -1.92416
   C       -3.45099        -3.05880        -3.15622
   C       -3.54486        -1.68441        -3.49784
   C       -3.61724        -1.57334        -4.86145
   C       -3.65727        -2.87778        -5.43385
   N       -3.84084        -3.10446        -6.81310
   O       -4.08615        -4.23657        -7.18966
   O       -3.73660        -2.14078        -7.54941
   C       -3.59526        -3.82899        -4.41325
   C       -3.83992        -5.20550        -4.50722
   C       -4.37233        -5.93829        -3.47329
   C       -4.70443        -7.29549        -3.58575
   N       -5.43835        -7.98035        -2.65346
   C       -5.88668        -7.47105        -1.37647
   C       -4.76101        -7.48272        -0.34579
   C       -5.72185        -9.29813        -3.06078
   O       -6.36312       -10.08894        -2.41214
   C       -5.07259        -9.40776        -4.36074
   C       -4.44457        -8.18978        -4.64395
   C       -3.76367        -8.33017        -5.91594
   O       -3.02669        -7.59519        -6.52894
   N       -4.09162        -9.64205        -6.34776
   C       -3.58861       -10.10647        -7.61880
   C       -4.57399        -9.82316        -8.75062
   C       -4.87948       -10.29068        -5.43755
   C       -5.46287       -11.58073        -5.47909
   C       -5.55526       -12.45055        -6.51747
   C       -6.23737       -13.68938        -6.38191
   S       -6.46860       -14.78752        -7.73999
   C       -7.33710       -15.79988        -6.60042
   N       -7.37378       -15.28405        -5.40038
   N       -6.77806       -14.14148        -5.28141
   C       -7.93572       -17.03501        -6.98399
   C       -8.60548       -17.79060        -6.08790
   C       -9.27193       -19.03308        -6.32545
   S       -9.72334       -19.97037        -4.92005
   C      -10.45682       -21.17639        -5.86692
   C      -10.38347       -20.88700        -7.20159
   C       -9.70955       -19.66570        -7.47371
   N       -9.68572       -19.09938        -8.80680
   O       -8.62074       -18.75709        -9.25794
   O      -10.76084       -18.98046        -9.33778
   N      -10.84538       -21.79874        -8.21336
   O      -11.67162       -22.61270        -7.87614
   O      -10.33777       -21.70206        -9.30556
   H       -5.72748         1.05478         0.78712
   H       -1.20598        -5.45902         0.06442
   H       -1.93005        -5.39547        -2.49569
   H       -3.45133        -0.86951        -2.80570
   H       -3.65563        -0.66801        -5.43762
   H       -3.70287        -5.66386        -5.48084
   H       -4.66250        -5.43401        -2.56285
   H       -6.69202        -8.13413        -1.05078
   H       -6.28281        -6.46087        -1.50049
   H       -4.39685        -8.49643        -0.19720
   H       -5.13341        -7.10586         0.60185
   H       -3.93180        -6.85563        -0.66592
   H       -3.34291       -11.16769        -7.54475
   H       -2.66778        -9.54514        -7.80434
   H       -5.54351       -10.27739        -8.55837
   H       -4.18085       -10.21104        -9.68602
   H       -4.71299        -8.75003        -8.85291
   H       -5.93757       -11.87093        -4.54951
   H       -5.16079       -12.24145        -7.49846
   H       -7.81323       -17.32863        -8.01576
   H       -8.62842       -17.44633        -5.06208
   H      -10.89438       -22.05373        -5.43146
*
