# ORCA input file
# SCF done       -167.671846780975          0.001289039859
! CAM-B3LYP def2-SVP def2/J RIJCOSX Grid4 TightSCF
%maxcore 5000
%tddft
    Mode sTDDFT
    Ethresh 5.0
    maxcore 5000
end

%pal
  nprocs 6
  end
* xyz 0 1
   C      -11.87439         4.17484         0.42785
   C      -11.41225         4.57652         1.65559
   C      -12.23432         4.79546         2.77993
   N      -12.84921         5.00459         3.72676
   C      -10.06082         4.80645         1.97383
   N       -8.98095         4.99772         2.31625
   C      -13.25617         3.83347         0.11107
   C      -13.31564         3.37576        -1.22831
   C      -14.48564         2.97113        -1.82181
   C      -15.65566         3.01822        -1.05554
   C      -15.58769         3.48127         0.28023
   C      -14.40299         3.89077         0.88016
   S      -17.14879         3.46706         1.04188
   C      -17.86173         2.84357        -0.42206
   C      -16.97807         2.65657        -1.43129
  Br      -19.70492         2.50493        -0.48105
   C      -11.96778         3.43238        -1.82396
   O      -11.67360         3.20603        -2.98225
   C      -11.08307         3.93949        -0.75846
   C       -9.78354         4.33426        -0.95045
   N       -8.99027         3.99824        -1.97950
   C       -9.01819         2.86490        -2.74818
   S       -9.63759         1.36427        -2.15420
   C       -9.06364         0.57864        -3.58361
   N       -9.33423        -0.78489        -3.71078
   O       -8.92381        -1.35865        -4.70397
   O       -9.96218        -1.30895        -2.80676
   C       -8.40376         1.41512        -4.44634
   C       -8.36956         2.74007        -3.97791
   C       -7.73359         3.83684        -4.67088
   C       -8.17171         5.10718        -4.63782
   C       -7.46777         6.20877        -5.23107
   C       -7.93330         7.46463        -5.31340
   C       -9.31856         7.86355        -4.90502
   C       -7.04977         8.57813        -5.82640
   N       -7.16992         9.78928        -5.04216
   C       -7.02397         9.85474        -3.69960
   C       -6.77729         8.79949        -2.88105
   C       -6.75791         8.87526        -1.47492
   C       -6.64043         7.77556        -0.67115
   C       -6.66172         7.69848         0.74296
   C       -6.57038         6.43926         1.25066
   C       -6.46287         5.42833         0.26822
   S       -6.46760         6.14485        -1.33759
   C       -6.38359         4.06466         0.42782
   C       -6.48711         3.28955         1.60385
   C       -6.43450         1.94931         1.38646
   C       -6.26756         1.56164         0.02500
   S       -6.15959         3.01110        -0.96350
   C       -6.25148         0.27656        -0.43433
   C       -6.11405        -0.19795        -1.77512
   C       -5.68458         0.60254        -2.84751
   C       -5.66450         0.09773        -4.12116
   C       -6.04578        -1.22026        -4.38445
   C       -6.39304        -2.07281        -3.32179
   C       -6.42545        -1.54013        -2.04804
   C       -6.78890        -3.50372        -3.53958
   O       -7.15776        -4.10340        -2.31556
   N       -6.08350        -1.61693        -5.75133
   O       -6.10014        -0.72652        -6.58551
   O       -6.08582        -2.80141        -6.02754
   H      -14.49851         2.62401        -2.84279
   H      -14.40340         4.23856         1.89949
   H      -17.24602         2.27805        -2.40064
   H       -9.33145         5.02949        -0.25244
   H       -8.17966         4.59719        -2.14841
   H       -7.99718         1.08701        -5.38655
   H       -6.86751         3.57687        -5.26357
   H       -9.09974         5.33323        -4.13361
   H       -6.46826         5.99260        -5.58617
   H       -9.38078         7.97471        -3.82192
   H      -10.04514         7.11677        -5.21311
   H       -9.58863         8.81614        -5.35350
   H       -7.34152         8.82618        -6.85204
   H       -6.00629         8.23711        -5.84574
   H       -7.28617        10.65276        -5.54376
   H       -7.16092        10.84281        -3.27965
   H       -6.62631         7.82004        -3.30862
   H       -6.87630         9.83947        -0.99884
   H       -6.74910         8.58794         1.34206
   H       -6.58493         6.20188         2.29761
   H       -6.62999         3.74572         2.56578
   H       -6.51399         1.20660         2.16045
   H       -6.40855        -0.48731         0.31654
   H       -5.34983         1.61198        -2.67964
   H       -5.34556         0.70945        -4.95141
   H       -6.73111        -2.18936        -1.24320
   H       -5.94668        -4.04603        -3.99343
   H       -7.61939        -3.52476        -4.25956
   H       -7.55819        -4.95587        -2.50929
*
