# ORCA input file
# SCF done       -198.252779333395          0.000805144317
! CAM-B3LYP def2-SVP def2/J RIJCOSX Grid4 TightSCF
%maxcore 5000
%tddft
    Mode sTDDFT
    Ethresh 5.0
    maxcore 5000
end

%pal
  nprocs 6
  end
* xyz 0 1
   C       -8.36074        -1.75774         0.24434
   C       -7.56716        -2.38139        -0.68337
   C       -7.34547        -3.77315        -0.72433
   N       -7.14989        -4.90083        -0.81251
   C       -6.81521        -1.70587        -1.66571
   N       -6.13271        -1.22293        -2.45286
   C       -8.96945        -2.38759         1.40676
   C       -9.49671        -1.36989         2.23845
   C      -10.12251        -1.64051         3.43105
   C      -10.23181        -2.97937         3.82145
   C       -9.70712        -3.98984         2.98006
   C       -9.07368        -3.71593         1.77374
   S       -9.96158        -5.57294         3.64788
   C      -10.75543        -4.86687         5.03059
   C      -10.82814        -3.51488         4.99548
  Br      -11.41527        -5.97992         6.38757
   C       -9.29632        -0.05384         1.60262
   O       -9.73644         1.00016         2.01825
   C       -8.61158        -0.33066         0.31736
   C       -8.45701         0.53738        -0.72888
   C       -8.48650         1.95913        -0.70380
   C       -8.93140         2.66606        -1.78115
   C       -9.07212         4.07049        -1.75474
   C       -8.57747         4.83945        -0.74270
   C       -7.72169         4.20788         0.33894
   C       -7.99456         2.69284         0.52924
   N       -6.85436         1.94131         0.98950
   C       -5.69402         2.39267         0.82864
   C       -5.42644         3.72131         0.25557
   N       -6.34267         4.55605         0.03361
   F       -4.17013         4.03386        -0.02676
   F       -4.65006         1.66487         1.21027
   C       -8.87145         6.23347        -0.68529
   O       -9.93926         6.68190        -1.40361
   C      -10.13037         7.95333        -1.12252
   C       -9.20775         8.40844        -0.20571
   N       -9.27308         9.73535         0.29056
   O       -9.86335        10.53801        -0.40020
   O       -8.78103         9.98827         1.37415
   C       -8.34064         7.29124         0.07204
   N       -7.15737         7.21137         0.73440
   C       -6.60274         8.10265         1.58154
   C       -5.30354         8.01993         1.99245
   C       -4.59138         8.96293         2.77745
   C       -3.24772         8.74875         2.81428
   C       -2.82796         7.62766         2.05911
   S       -4.20428         6.76927         1.41901
   C       -1.55895         7.27592         1.64383
   C       -0.33665         7.96260         1.80854
   C        0.63788         7.53681         0.95720
   C        0.22844         6.51048         0.06686
   S       -1.37447         5.97856         0.47903
   C        0.98552         6.00370        -0.97315
   C        0.63654         5.11824        -1.98990
   C       -0.56036         4.64340        -2.49971
   C       -0.48163         3.37964        -3.28198
   O        0.52767         2.81885        -3.65091
   C       -1.87711         2.94797        -3.48677
   C       -2.35012         1.81522        -4.08035
   C       -3.74685         1.60901        -4.15624
   C       -4.62264         2.58824        -3.60665
   C       -6.01226         2.36852        -3.66727
   C       -6.48429         1.23484        -4.26632
   C       -5.64301         0.27235        -4.83322
   C       -4.29086         0.46249        -4.76785
   F       -7.82004         1.02563        -4.31775
   C       -4.10106         3.76610        -3.01969
   C       -2.74647         3.94249        -2.95796
   C       -1.93118         5.04836        -2.45191
   C       -2.42423         6.30756        -2.16513
   C       -1.59830         7.43855        -2.03524
   N       -0.95065         8.38412        -1.95260
   C       -3.79024         6.61804        -2.05099
   N       -4.88668         6.92852        -1.89153
   H      -10.51457        -0.84476         4.04478
   H       -8.69544        -4.51889         1.16315
   H      -11.28429        -2.91862         5.76448
   H       -8.33014         0.10756        -1.71662
   H       -9.27592         2.13267        -2.65411
   H       -9.61037         4.54703        -2.55944
   H       -7.93759         4.71383         1.29113
   H       -8.75880         2.55700         1.30822
   H      -10.94721         8.47517        -1.58346
   H       -6.57028         6.42487         0.43330
   H       -7.21463         8.92783         1.91920
   H       -5.09283         9.79081         3.24571
   H       -2.54331         9.38287         3.32104
   H       -0.22735         8.77532         2.50353
   H        1.61858         7.97237         0.88990
   H        2.02261         6.31801        -0.96683
   H        1.48747         4.64634        -2.47794
   H       -1.66921         1.08385        -4.48907
   H       -6.69296         3.09451        -3.24790
   H       -6.07516        -0.60225        -5.29075
   H       -3.61815        -0.27162        -5.18416
   H       -4.79166         4.49849        -2.63148
*
