# ORCA input file
# SCF done       -156.712105041795          0.000634016565
! CAM-B3LYP def2-SVP def2/J RIJCOSX Grid4 TightSCF
%maxcore 5000
%tddft
    Mode sTDDFT
    Ethresh 5.0
    maxcore 5000
end

%pal
  nprocs 6
  end
* xyz 0 2
   C       -6.61627         2.34267         4.68921
   C       -6.86185         3.00485         5.87469
   C       -6.78857         2.38777         7.13432
   N       -6.76608         1.90687         8.17901
   C       -7.30746         4.33591         5.96563
   N       -7.69496         5.40759         6.11695
   C       -6.28012         0.92188         4.58077
   C       -6.35686         0.55759         3.21701
   C       -6.16151        -0.72521         2.77700
   C       -5.84488        -1.69766         3.73281
   C       -5.71102        -1.31477         5.08385
   C       -5.92991        -0.01520         5.53142
   S       -5.26660        -2.66509         6.08681
   C       -5.30229        -3.71423         4.69630
   C       -5.61157        -3.08650         3.53849
  Br       -4.96588        -5.54988         4.90534
   C       -6.63710         1.76708         2.41446
   O       -6.66176         1.81654         1.19370
   C       -6.80029         2.86137         3.36577
   C       -6.92467         4.21418         3.02923
   C       -7.40987         4.78300         1.86571
   C       -8.26825         4.23069         0.91426
   C       -8.72427         4.86318        -0.26122
   C       -9.64568         4.13996        -0.97548
   C       -9.96906         2.91542        -0.37172
   S       -9.06063         2.70319         1.09939
   C      -10.84691         1.90110        -0.73996
   C      -11.78404         1.80450        -1.78053
   C      -12.57019         0.68360        -1.71145
   C      -12.31348        -0.13554        -0.58867
   S      -10.92396         0.48817         0.27838
   C      -13.00127        -1.26011        -0.18763
   C      -12.92397        -1.87961         1.07698
   S      -13.24237        -3.61476         1.17111
   C      -12.97726        -3.60620         2.88130
   C      -12.98685        -4.57395         3.88269
   C      -12.72338        -4.01763         5.11451
   C      -12.61499        -4.72903         6.37317
   O      -12.74379        -5.92300         6.50444
   O      -12.33486        -3.90870         7.40319
   S      -12.48563        -2.28995         5.05338
   C      -12.68901        -2.31525         3.33911
   C      -12.64545        -1.33340         2.33456
   C      -12.51925         0.09166         2.60587
   C      -11.53520         0.75706         3.44480
   C      -11.86918         2.24098         3.58108
   C      -13.07269         2.34510         2.72263
   C      -13.40087         1.04810         2.20541
   C      -14.60326         1.63795         1.48306
   C      -14.11105         2.95089         2.10026
   C      -10.46844         0.22496         4.12449
   S       -9.82711         1.13250         5.50694
   C       -9.02728        -0.23648         6.12435
   C       -9.11863        -1.33397         5.29077
   C       -9.84043        -1.05651         4.08620
   C       -9.81445        -1.97266         3.04544
   C       -9.24977        -3.22965         3.24770
   C       -8.68865        -3.55781         4.50818
   C       -8.59735        -2.62964         5.50059
   N       -9.20029        -4.13761         2.23647
   H       -6.24488        -0.97363         1.73091
   H       -5.81046         0.22717         6.57419
   H       -5.67427        -3.57842         2.58512
   H       -6.55093         4.91771         3.76471
   H       -7.17150         5.82768         1.70413
   H       -8.35441         5.82887        -0.55844
   H      -10.08309         4.45957        -1.90445
   H      -11.87694         2.56372        -2.53644
   H      -13.36037         0.45454        -2.40484
   H      -13.64758        -1.73305        -0.91580
   H      -13.17067        -5.62297         3.74424
   H      -12.27221        -4.42052         8.22391
   H      -11.03365         2.85048         3.23046
   H      -12.06574         2.51335         4.62038
   H      -15.57012         1.28357         1.83625
   H      -14.56278         1.57635         0.39620
   H      -14.47766         3.95634         2.02967
   H       -8.51974        -0.16903         7.06708
   H      -10.22981        -1.71860         2.08383
   H       -8.31210        -4.55922         4.65716
   H       -8.14219        -2.86714         6.44910
   H       -9.74158        -3.96934         1.40606
   H       -8.96727        -5.09179         2.44916
*
