# ORCA input file
# SCF done       -214.690706900058          0.000683132030
! CAM-B3LYP def2-SVP def2/J RIJCOSX Grid4 TightSCF
%maxcore 5000
%tddft
    Mode sTDDFT
    Ethresh 5.0
    maxcore 5000
end

%pal
  nprocs 6
  end
* xyz 0 1
   C       -4.35909        -1.94586        -2.66432
   C       -3.57664        -2.96194        -2.18916
   C       -3.08368        -4.01583        -2.99035
   N       -2.65759        -4.89557        -3.59081
   C       -3.10345        -3.08938        -0.86339
   N       -2.64960        -3.25378         0.17753
   C       -4.75337        -1.75544        -4.05437
   C       -5.42628        -0.51235        -4.17347
   C       -5.90718        -0.03832        -5.37140
   C       -5.72102        -0.83213        -6.50691
   C       -5.05449        -2.07650        -6.37880
   C       -4.56516        -2.55236        -5.16858
   S       -4.93630        -2.89748        -7.90300
   C       -5.76903        -1.57877        -8.68404
   C       -6.11967        -0.57326        -7.84603
  Br       -6.09658        -1.65553       -10.52735
   C       -5.49879         0.12719        -2.85443
   O       -5.96622         1.22248        -2.60134
   C       -4.89611        -0.82450        -1.90265
   C       -4.93166        -0.73933        -0.54227
   C       -5.42359         0.30137         0.28228
   S       -5.88394         1.88410        -0.27055
   C       -6.08741         2.46612         1.34766
   C       -5.81972         1.46407         2.28070
   C       -5.49931         0.23767         1.67713
   C       -5.34854        -1.04984         2.44333
   F       -5.77556        -2.11159         1.73365
   F       -4.08308        -1.30704         2.79149
   F       -6.08668        -1.06516         3.55763
   C       -5.81612         1.68806         3.76661
   F       -7.01185         1.45769         4.33335
   F       -4.91389         0.93900         4.40239
   F       -5.50312         2.95911         4.09055
   C       -6.52453         3.79641         1.59283
   C       -6.82195         4.67381         0.60768
   N       -7.21996         5.94507         0.87037
   C       -7.61141         6.87583        -0.03690
   S       -7.77602         6.48234        -1.71396
   C       -8.30909         8.10574        -2.02224
   N       -8.61110         8.43600        -3.35019
   O       -8.97411         9.57087        -3.58537
   O       -8.47900         7.54402        -4.17080
   C       -8.35768         8.89055        -0.90409
   C       -7.95201         8.20506         0.25939
   C       -7.84661         8.77310         1.57381
   C       -8.29335         9.99292         1.93672
   C       -8.08151        10.52741         3.24488
   O       -7.22114         9.88101         4.08873
   C       -7.09585        10.57938         5.20277
   C       -7.87795        11.70862         5.14566
   N       -8.00685        12.69707         6.14492
   O       -7.37492        12.55299         7.16455
   O       -8.75947        13.63025         5.91055
   C       -8.53987        11.68286         3.87228
   N       -9.41151        12.65413         3.47875
   C      -10.30247        12.61253         2.47632
   C      -11.10612        13.63281         2.06838
   C      -12.27960        13.30809         1.21868
   O      -12.49175        12.25182         0.66418
   C      -13.12749        14.51182         1.25401
   C      -14.36706        14.70459         0.71585
   C      -15.02239        15.93975         0.91768
   C      -14.37636        16.95557         1.68098
   C      -15.03928        18.18049         1.88915
   C      -16.28336        18.36939         1.35406
   C      -16.93417        17.38405         0.59894
   C      -16.30510        16.18864         0.38802
   F      -16.91848        19.53775         1.55188
   C      -13.08704        16.73205         2.21808
   C      -12.46864        15.53003         2.00335
   C      -11.15293        15.03824         2.40729
   C      -10.11434        15.82136         2.84373
   C       -8.78719        15.36399         2.96412
   N       -7.69298        15.01896         3.02293
   C      -10.22661        17.20173         3.11234
   N      -10.26227        18.32275         3.35439
   H       -6.41023         0.91407        -5.42921
   H       -4.06735        -3.50633        -5.12384
   H       -6.63808         0.31468        -8.15846
   H       -4.51740        -1.58011        -0.00282
   H       -6.63446         4.11453         2.61816
   H       -6.75771         4.40042        -0.43608
   H       -7.23866         6.22348         1.84528
   H       -8.66194         9.91997        -0.94316
   H       -7.35308         8.17755         2.32974
   H       -8.80634        10.62784         1.23375
   H       -6.44521        10.21828         5.97520
   H       -9.39566        13.47077         4.09408
   H      -10.47253        11.64955         2.00982
   H      -14.84387        13.92200         0.14504
   H      -14.56701        18.96240         2.46307
   H      -17.91545        17.59008         0.20189
   H      -16.78659        15.41432        -0.18997
   H      -12.62604        17.51613         2.79730
*
