# ORCA input file
# SCF done       -195.536060198546          0.000991785882
! CAM-B3LYP def2-SVP def2/J RIJCOSX Grid4 TightSCF
%maxcore 5000
%tddft
    Mode sTDDFT
    Ethresh 5.0
    maxcore 5000
end

%pal
  nprocs 6
  end
* xyz 0 1
   C      -12.26482        -7.57763       -13.20047
   C      -12.85151        -8.46869       -14.05569
   F      -13.70509        -8.03854       -14.99308
   C      -12.56715        -9.84549       -13.96274
   F      -13.15576       -10.69604       -14.81326
   C      -11.69978       -10.31293       -13.01449
   C      -11.08093        -9.42027       -12.11904
   C      -11.36637        -8.02732       -12.21298
   C      -10.75415        -7.11152       -11.32558
   C       -9.88752        -7.57527       -10.37248
   C       -9.61284        -8.97158       -10.28144
   C      -10.18457        -9.87788       -11.12656
   C       -8.67609        -9.19852        -9.17228
   O       -8.21623       -10.26532        -8.78326
   C       -8.41940        -7.88082        -8.58244
   C       -9.11542        -6.87705        -9.34750
   C       -9.02277        -5.51450        -9.19945
   C       -9.73453        -4.58155        -9.97938
   N      -10.29084        -3.77259       -10.57510
   C       -8.16424        -4.87796        -8.28554
   N       -7.45527        -4.30882        -7.58186
   C       -7.68786        -7.73489        -7.42750
   N       -7.09346        -8.79505        -6.86525
   C       -6.36401        -8.85524        -5.71466
   S       -6.20735       -10.41301        -4.95824
   C       -5.31177        -9.68081        -3.67031
   N       -4.83916       -10.50638        -2.64015
   O       -4.21823        -9.97935        -1.73665
   O       -5.09224       -11.69451        -2.73187
   C       -5.14743        -8.33019        -3.82118
   C       -5.73388        -7.83088        -5.00089
   C       -5.62041        -6.45638        -5.43165
   C       -5.46625        -5.40889        -4.60384
   C       -5.36963        -4.06491        -5.09631
   C       -5.24353        -2.96354        -4.34190
   C       -5.13662        -2.97384        -2.84557
   C       -5.20329        -1.60881        -4.98957
   N       -3.89923        -1.00571        -4.79521
   C       -3.54045         0.20745        -5.23135
   C       -4.35965         1.08712        -5.88604
   C       -4.00157         2.36468        -6.34401
   C       -2.80603         3.04503        -6.27154
   C       -2.58936         4.34441        -6.78602
   C       -1.32713         4.83008        -6.60318
   C       -0.46822         3.93952        -5.92968
   S       -1.31296         2.46707        -5.53986
   C        0.86225         4.12301        -5.57978
   C        1.67654         5.24472        -5.81650
   C        2.94861         5.11850        -5.32961
   C        3.19708         3.88920        -4.68691
   S        1.76586         2.89400        -4.72213
   C        4.34304         3.43562        -4.05048
   C        5.54526         4.12346        -4.00987
   C        6.68990         3.74608        -3.32857
   C        7.99980         4.27730        -3.75148
   O        8.20461         5.18551        -4.53209
   C        9.00447         3.43648        -3.06520
   C       10.36267         3.44583        -3.18264
   C       11.12557         2.50895        -2.44716
   C       10.45720         1.57531        -1.60458
   C       11.22063         0.63776        -0.88311
   C       12.58236         0.64595        -1.00323
   C       13.25870         1.55733        -1.82349
   C       12.53154         2.47348        -2.53255
   F       13.31462        -0.25126        -0.31284
   C        9.04579         1.59692        -1.49489
   C        8.33169         2.51721        -2.21015
   C        6.89480         2.79278        -2.27933
   C        5.96879         2.36249        -1.35276
   C        4.66377         2.87709        -1.23741
   N        3.60749         3.29365        -1.05938
   C        6.25216         1.43908        -0.33044
   N        6.41545         0.67084         0.50889
   H      -12.49301        -6.52672       -13.28638
   H      -11.49316       -11.37009       -12.95607
   H      -10.99187        -6.06423       -11.42018
   H       -9.95764       -10.92957       -11.04010
   H       -7.60910        -6.78283        -6.92352
   H       -7.30593        -9.68458        -7.34995
   H       -4.59111        -7.73758        -3.11854
   H       -5.64380        -6.27529        -6.49751
   H       -5.45765        -5.56109        -3.53490
   H       -5.44465        -3.95723        -6.16906
   H       -6.08493        -3.27483        -2.40152
   H       -4.88902        -1.98536        -2.46857
   H       -4.37689        -3.67482        -2.50625
   H       -5.96496        -0.96146        -4.53603
   H       -5.42039        -1.69192        -6.06039
   H       -3.19709        -1.59066        -4.37119
   H       -2.51660         0.47373        -5.01851
   H       -5.37904         0.79027        -6.08315
   H       -4.79148         2.91428        -6.84207
   H       -3.37725         4.88689        -7.27870
   H       -0.99811         5.79882        -6.93209
   H        1.31326         6.11588        -6.33177
   H        3.70098         5.88120        -5.41362
   H        4.27969         2.46511        -3.57944
   H        5.66600         4.99646        -4.64038
   H       10.85322         4.15790        -3.82943
   H       10.73304        -0.07714        -0.23876
   H       14.33505         1.51723        -1.87840
   H       13.03023         3.18623        -3.17230
   H        8.56711         0.87559        -0.85177
*
