# ORCA input file
# SCF done       -199.697911232350          0.000743770930
! CAM-B3LYP def2-SVP def2/J RIJCOSX Grid4 TightSCF
%maxcore 5000
%tddft
    Mode sTDDFT
    Ethresh 5.0
    maxcore 5000
end

%pal
  nprocs 6
  end
* xyz 0 1
   C       -2.07080         0.70844        -1.91760
   C       -1.68077         2.01633        -2.15552
   C       -0.99703         2.69992        -1.14828
   C       -0.58917         4.03866        -1.37231
   N       -0.26095         5.11877        -1.56195
   C       -0.70443         2.08623         0.08512
   C       -0.01045         2.80840         1.08592
   N        0.55150         3.37705         1.90559
   C       -1.09498         0.76718         0.31888
   C       -1.76923         0.10393        -0.68422
   C       -2.27365        -1.28769        -0.67063
   O       -2.14203        -2.07206         0.24233
   C       -2.89141        -1.49847        -1.99915
   C       -2.79713        -0.25489        -2.74563
   C       -3.34325         0.02304        -3.97075
   C       -3.22527         1.26870        -4.62649
   N       -3.16263         2.25224        -5.21368
   C       -4.12324        -0.85933        -4.75022
   N       -4.77943        -1.50525        -5.43626
   C       -3.37698        -2.66906        -2.52210
   C       -3.64226        -3.91011        -1.91661
   C       -3.66994        -4.32454        -0.58821
   C       -4.06810        -5.64583        -0.46085
   C       -4.34225        -6.26689        -1.70156
   S       -4.12534        -5.21488        -3.01488
   C       -4.73732        -7.60402        -1.45391
   C       -4.72330        -7.82976        -0.06707
   C       -4.29830        -6.61129         0.60418
   C       -4.15483        -6.41594         1.94480
   C       -4.38196        -7.44798         2.88241
   N       -4.55363        -8.28295         3.64844
   C       -3.77739        -5.17455         2.50434
   N       -3.49252        -4.17481         2.98592
   C       -5.13551        -9.11880         0.27712
   C       -5.45102        -9.87538        -0.83320
   S       -5.23218        -8.98178        -2.32963
   C       -5.92328       -11.23603        -0.88942
   C       -5.82287       -11.98751        -2.06475
   C       -6.27531       -13.28444        -2.11819
   F       -6.13550       -13.94796        -3.28248
   C       -6.87671       -13.92973        -1.02749
   C       -6.98389       -13.17384         0.14639
   C       -6.51972       -11.88091         0.20538
   F       -6.67880       -11.22262         1.36460
   C       -7.36616       -15.28344        -1.08717
   C       -8.18678       -15.90341        -0.16213
   C       -8.46465       -17.22419        -0.50942
   C       -7.83984       -17.61473        -1.70771
   S       -6.93594       -16.35309        -2.40797
   C       -8.16615       -18.97154        -1.96563
   C       -9.00756       -19.42854        -0.92987
   C       -9.21243       -18.35039         0.02267
   C       -9.92038       -18.41456         1.18658
   C      -10.56422       -19.60592         1.58328
   N      -11.07788       -20.58697         1.88040
   C      -10.04110       -17.30602         2.05073
   N      -10.13697       -16.39522         2.73994
   C       -9.36086       -20.76200        -1.06716
   C       -8.78944       -21.34386        -2.19199
   S       -7.83218       -20.18350        -3.10927
   C       -8.91731       -22.66345        -2.66823
   C       -9.36416       -23.77317        -2.01162
   C       -9.81251       -24.94042        -2.81935
   O       -9.63332       -25.11827        -3.99995
   C      -10.56723       -25.79635        -1.87538
   C      -11.29649       -26.93599        -2.14043
   C      -11.96688       -27.54875        -1.08013
   C      -11.89803       -26.99890         0.21455
   C      -11.14613       -25.85133         0.47454
   C      -10.47167       -25.25687        -0.57753
   C       -9.59335       -24.08510        -0.61692
   C       -8.92042       -23.58809         0.46750
   C       -7.89781       -22.62222         0.38266
   N       -7.04197       -21.85815         0.35017
   C       -9.10099       -24.05494         1.78819
   N       -9.21075       -24.40139         2.87570
   C      -12.60942       -27.62054         1.27124
   N      -13.18432       -28.11703         2.12743
   C      -12.72643       -28.72167        -1.30941
   N      -13.33459       -29.66978        -1.51493
   H       -1.88208         2.52120        -3.08661
   H       -0.87923         0.27803         1.25666
   H       -3.60387        -2.65813        -3.58178
   H       -3.40329        -3.67646         0.22675
   H       -5.19092        -9.48700         1.28442
   H       -5.37506       -11.55908        -2.94820
   H       -7.42551       -13.59369         1.03470
   H       -8.57900       -15.41658         0.71101
   H      -10.03718       -21.28430        -0.41578
   H       -8.69493       -22.81927        -3.71969
   H      -11.34918       -27.34130        -3.13945
   H      -11.12078       -25.45054         1.47565
*
