# ORCA input file
# SCF done       -167.550327514501          0.000842734623
! CAM-B3LYP def2-SVP def2/J RIJCOSX Grid4 TightSCF
%maxcore 5000
%tddft
    Mode sTDDFT
    Ethresh 5.0
    maxcore 5000
end

%pal
  nprocs 6
  end
* xyz 0 1
   C        2.89854         1.14611        -2.65224
   C        2.64730         0.66054        -1.39008
   N        2.42671        -0.61975        -1.08402
   C        2.43775        -1.54550        -2.02421
   C        2.68618        -1.18038        -3.37539
   C        2.92093         0.20134        -3.68871
   N        3.13622         0.37950        -4.99521
   S        3.05006        -1.04069        -5.73395
   N        2.73641        -1.96185        -4.44996
   C        2.19449        -2.90673        -1.65446
   C        1.93533        -3.37667        -0.37892
   C        1.73950        -4.75452        -0.36931
   C        1.85406        -5.32814        -1.65393
   S        2.20075        -4.17099        -2.86164
   C        1.63571        -6.72125        -1.54822
   C        1.38093        -7.03313        -0.19541
   C        1.44429        -5.80768         0.58790
   C        1.27027        -5.68134         1.93398
   C        1.00169        -6.79317         2.76214
   N        0.78896        -7.69166         3.44137
   C        1.35467        -4.43629         2.59320
   N        1.42067        -3.43039         3.13929
   C        1.13979        -8.38324         0.01248
   C        1.20857        -9.11653        -1.16776
   S        1.58738        -8.09776        -2.55519
   C        1.01310       -10.50916        -1.36572
   C        0.65135       -11.42928        -0.34564
   C        0.46071       -12.83757        -0.61267
   N        0.03642       -13.64232         0.37271
   C       -0.16637       -13.16218         1.57308
   C        0.09090       -11.78162         1.85513
   N        0.47387       -10.97005         0.90253
   C       -0.09231       -11.28918         3.17276
   N       -0.26374       -10.95044         4.25293
   C       -0.67290       -14.01349         2.58816
   N       -1.10177       -14.65768         3.43213
   C        0.66219       -13.39993        -1.90070
   C        0.99400       -12.47469        -2.91258
   C        1.16358       -11.07132        -2.65225
   N        1.47683       -10.40116        -3.76161
   S        1.55035       -11.42077        -4.99981
   N        1.19123       -12.76506        -4.19901
   C        0.52735       -14.78048        -2.20293
   C        0.36484       -15.85076        -1.33032
   C        0.25082       -17.05908        -2.00192
   C        0.31684       -16.91855        -3.40454
   S        0.55791       -15.29976        -3.88615
   C        0.15781       -18.19682        -3.99054
   C       -0.00765       -19.14564        -2.96211
   C        0.06378       -18.46578        -1.67978
   C       -0.00009       -19.02543        -0.43788
   C       -0.18583       -20.41150        -0.25240
   N       -0.33928       -21.53834        -0.10526
   C        0.14703       -18.25878         0.73858
   N        0.29080       -17.64333         1.69480
   C       -0.18473       -20.43983        -3.44720
   C       -0.15902       -20.48268        -4.82947
   S        0.09334       -18.90112        -5.54488
   C       -0.31566       -21.62443        -5.67995
   C       -0.51339       -22.92317        -5.22134
   N       -0.66657       -23.99753        -5.99605
   C       -0.64010       -23.89890        -7.29790
   C       -0.44715       -22.65143        -7.92020
   C       -0.28116       -21.49153        -7.09043
   N       -0.10839       -20.38207        -7.80644
   S       -0.15196       -20.76901        -9.36852
   N       -0.38927       -22.34508        -9.21841
   H        3.07009         2.19077        -2.84764
   H        2.61438         1.32855        -0.54032
   H        1.89844        -2.71889         0.46972
   H        0.92134        -8.84183         0.95866
   H        0.33020       -15.72287        -0.26483
   H       -0.32938       -21.30748        -2.83058
   H       -0.55396       -23.13049        -4.16200
   H       -0.77097       -24.80322        -7.87287
*
