# ORCA input file
# SCF done       -204.025868477820          0.000500665822
! CAM-B3LYP def2-SVP def2/J RIJCOSX Grid4 TightSCF
%maxcore 5000
%tddft
    Mode sTDDFT
    Ethresh 5.0
    maxcore 5000
end

%pal
  nprocs 6
  end
* xyz 0 1
   C       -0.05211         5.45567         4.51871
   C        0.67642         6.42640         3.88195
   C        2.01633         6.73897         4.19418
   N        3.10223         7.04215         4.40877
   C        0.21089         7.21512         2.80838
   N       -0.09191         7.87676         1.92005
   C        0.44710         4.55899         5.55229
   C       -0.55088         3.59478         5.83481
   C       -0.38041         2.60128         6.76829
   C        0.83473         2.55864         7.45914
   C        1.82558         3.52966         7.17440
   C        1.65302         4.53255         6.22855
   S        3.24477         3.29829         8.14879
   C        2.50031         1.91910         8.91351
   C        1.25260         1.64409         8.46378
  Br        3.43854         0.97595        10.23443
   C       -1.73963         3.84862         4.99946
   O       -2.77164         3.21430         5.01617
   C       -1.42326         5.07550         4.22372
   C       -2.31013         5.84871         3.52911
   C       -3.62519         5.53673         3.12266
   C       -4.26123         4.31738         2.93083
   C       -5.57299         4.47554         2.50384
   C       -5.95468         5.82832         2.36901
   S       -4.68200         6.89641         2.72345
   C       -7.32102         5.87927         1.99588
   C       -7.79964         4.55706         1.88567
   C       -6.71483         3.63485         2.17888
   C       -6.75810         2.27282         2.14125
   C       -5.62839         1.46490         2.39691
   N       -4.71996         0.78955         2.57626
   C       -7.93913         1.57059         1.81645
   N       -8.89512         0.99372         1.55643
   C       -9.15002         4.50142         1.54950
   C       -9.68668         5.76796         1.41238
   S       -8.52636         7.04729         1.68438
   C      -11.03619         6.12589         1.12322
   N      -11.32516         7.41806         1.07026
   N      -12.52099         7.86739         0.86189
   C      -13.57060         7.07793         0.68584
   C      -13.39351         5.66479         0.69421
   C      -12.07051         5.16797         0.92028
   N      -12.02732         3.83896         0.90819
   S      -13.50733         3.27407         0.63703
   N      -14.27356         4.68247         0.52397
   C      -14.83946         7.70491         0.51256
   C      -16.07444         7.10423         0.35387
   C      -17.08822         8.05280         0.24433
   C      -16.60532         9.37558         0.31839
   S      -14.91317         9.45162         0.52522
   C      -17.70995        10.25684         0.21046
   C      -18.88699         9.49589         0.06418
   C      -18.53231         8.08515         0.08143
   C      -19.37458         7.01877        -0.02951
   C      -18.91018         5.68618         0.00751
   N      -18.54137         4.60115         0.03489
   C      -20.76760         7.17493        -0.19535
   N      -21.89790         7.29842        -0.34101
   C      -20.02581        10.28394        -0.05654
   C      -19.74049        11.63882         0.03372
   S      -18.01189        11.93008         0.21584
   C      -20.68392        12.68316        -0.10805
   C      -20.58369        14.00109         0.20990
   C      -19.65650        14.74825         1.03430
   C      -19.04838        14.29580         2.17607
   C      -18.24057        15.10042         3.00472
   N      -17.56413        15.71507         3.69854
   C      -19.25301        13.00080         2.69490
   N      -19.43241        11.96749         3.16174
   C      -19.73444        16.14285         0.61588
   C      -20.85321        16.29600        -0.24278
   C      -21.48865        14.98091        -0.45734
   O      -22.49156        14.72955        -1.08208
   C      -21.21767        17.51313        -0.76559
   C      -20.43536        18.62522        -0.43660
   C      -19.31175        18.45776         0.40937
   C      -18.94832        17.22921         0.94740
   S      -18.48142        19.95983         0.67355
   C      -19.63997        20.78340        -0.33686
   C      -20.59956        19.97590        -0.84837
  Br      -19.47113        22.62850        -0.62262
   H       -1.16002         1.88025         6.95764
   H        2.43482         5.25216         6.05184
   H        0.64991         0.83103         8.82520
   H       -1.99937         6.85733         3.28165
   H       -3.77884         3.37292         3.09749
   H       -9.73509         3.60977         1.41425
   H      -16.19711         6.03654         0.32754
   H      -21.02755         9.91229        -0.17596
   H      -21.59964        12.40602        -0.62315
   H      -22.07927        17.60565        -1.40785
   H      -18.08210        17.14457         1.58284
   H      -21.39106        20.31687        -1.49036
*
