# ORCA input file
# SCF done       -211.899313841510          0.000774133184
! CAM-B3LYP def2-SVP def2/J RIJCOSX Grid4 TightSCF
%maxcore 5000
%tddft
    Mode sTDDFT
    Ethresh 5.0
    maxcore 5000
end

%pal
  nprocs 6
  end
* xyz 0 1
   C        7.24888        -5.55183        -6.00853
   C        8.16622        -6.48192        -6.41026
   F        9.28101        -6.09772        -7.04521
   C        7.95339        -7.85295        -6.16224
   F        8.86905        -8.74245        -6.56847
   C        6.82678        -8.27483        -5.51323
   C        5.86461        -7.34041        -5.08376
   C        6.07671        -5.95426        -5.33752
   C        5.12441        -4.99719        -4.91737
   C        3.99908        -5.41264        -4.25593
   C        3.80214        -6.79828        -3.99713
   C        4.69742        -7.74681        -4.39925
   C        2.54668        -6.97419        -3.24645
   O        2.06423        -8.02963        -2.87878
   C        2.00955        -5.62501        -3.02764
   C        2.87016        -4.66943        -3.69980
   C        2.67695        -3.31802        -3.82278
   C        1.57452        -2.59442        -3.32148
   N        0.70967        -1.93504        -2.95142
   C        3.56566        -2.45217        -4.49528
   N        4.24842        -1.69533        -5.02284
   C        0.92457        -5.31862        -2.24842
   C        0.08305        -6.15036        -1.49224
   C       -0.89084        -5.61151        -0.64596
   C       -1.56165        -6.58352         0.06659
   C       -1.13783        -7.89263        -0.24226
   S        0.12412        -7.90796        -1.41398
   C       -1.80161        -8.84743         0.53209
   C       -2.70670        -8.26354         1.43836
   S       -2.78457        -6.52944         1.30959
   C       -3.32477        -9.18019         2.27692
   C       -2.91063       -10.47475         2.00313
   S       -1.76016       -10.56689         0.68439
   C       -3.27162       -11.64942         2.68848
   C       -2.94125       -12.95749         2.31824
   C       -3.39674       -13.94876         3.25570
   N       -3.15936       -15.24571         3.04355
   C       -2.50108       -15.56204         1.94985
   C       -2.25003       -17.00802         1.72034
   O       -2.61012       -17.86348         2.50101
   C       -1.53169       -17.32614         0.47462
   C       -1.10940       -16.40167        -0.39386
   C       -1.30975       -14.95252        -0.21143
   O       -0.90101       -14.13642        -1.00896
   C       -2.04812       -14.57240         1.01924
   N       -2.27159       -13.29141         1.21547
   C       -4.05603       -13.38832         4.35760
   S       -4.14185       -11.66114         4.18757
   C       -4.52701       -14.05902         5.50411
   C       -4.53668       -15.42755         5.71775
   C       -4.98871       -15.74008         6.99606
   C       -5.32228       -14.61520         7.77166
   S       -5.10165       -13.14965         6.89472
   C       -5.71480       -14.95885         9.06237
   C       -5.69134       -16.34806         9.27581
   S       -5.19057       -17.23539         7.86253
   C       -6.02021       -16.71240        10.57611
   C       -6.32478       -15.61840        11.37006
   S       -6.17098       -14.10532        10.48190
   C       -6.56955       -15.65624        12.76169
   C       -7.00791       -14.66412        13.58428
   C       -6.67272       -14.70767        15.03505
   O       -6.28861       -15.66491        15.66416
   C       -6.83749       -13.31458        15.50332
   C       -6.51062       -12.77025        16.71176
   C       -6.71450       -11.38722        16.91975
   C       -7.25644       -10.59198        15.86807
   C       -7.44395        -9.21129        16.07939
   C       -7.11148        -8.64640        17.27851
   C       -6.57796        -9.43376        18.31873
   C       -6.38409       -10.77547        18.14482
   F       -6.25896        -8.85291        19.48298
   F       -7.28841        -7.33373        17.47648
   C       -7.59889       -11.18550        14.63150
   C       -7.39401       -12.52693        14.45475
   C       -7.65948       -13.40024        13.31604
   C       -8.58247       -13.16836        12.33113
   C       -8.99840       -14.16911        11.42770
   N       -9.38393       -14.98077        10.71386
   C       -9.27432       -11.95014        12.18131
   N       -9.84650       -10.96875        12.01792
   H        7.42666        -4.50635        -6.20697
   H        6.67898        -9.32762        -5.33017
   H        5.31635        -3.95707        -5.12447
   H        4.52046        -8.79120        -4.19190
   H        0.67876        -4.26846        -2.14597
   H       -1.06680        -4.55459        -0.55985
   H       -4.03316        -8.93736         3.04767
   H       -1.36032       -18.38023         0.30248
   H       -0.58221       -16.67817        -1.29706
   H       -4.21127       -16.13084         4.97330
   H       -6.05200       -17.72367        10.93766
   H       -6.25699       -16.56843        13.26109
   H       -6.09682       -13.38388        17.49739
   H       -7.85449        -8.59514        15.29472
   H       -5.97440       -11.36375        18.95093
   H       -7.99993       -10.56332        13.84705
*
