# ORCA input file
# SCF done       -195.857213818805          0.000546553433
! CAM-B3LYP def2-SVP def2/J RIJCOSX Grid4 TightSCF
%maxcore 5000
%tddft
    Mode sTDDFT
    Ethresh 5.0
    maxcore 5000
end

%pal
  nprocs 6
  end
* xyz 0 1
   C        3.06477        -1.92312        -1.59643
   O        2.50821        -2.64622        -2.39285
   C        3.80651        -0.68841        -1.92973
   C        4.29149        -0.09013        -0.75518
   C        5.00843         1.09265        -0.83696
   C        5.23084         1.65082        -2.09075
   C        4.74932         1.04347        -3.25292
   C        4.02588        -0.13936        -3.17572
  Br        5.07178         1.82407        -4.94275
  Br        6.20584         3.26661        -2.20172
   C        3.90829        -0.91870         0.38576
   C        4.30852        -0.70537         1.67872
   C        5.09907         0.39077         2.08841
   N        5.73492         1.25930         2.48561
   C        4.03220        -1.54270         2.78126
   N        3.87142        -2.17386         3.72706
   C        3.11324        -2.02573        -0.12006
   C        2.44744        -2.91528         0.68274
   C        1.73160        -4.08443         0.37010
   C        1.59976        -4.82479        -0.80095
   C        0.83484        -5.96534        -0.61595
   C        0.35917        -6.10928         0.70970
   S        0.87454        -4.84796         1.72160
   C       -0.40981        -7.29362         0.78411
   C       -0.41834        -7.90564        -0.48336
   C        0.36483        -7.09479        -1.40303
   C        0.61269        -7.35673        -2.71715
   C        0.08501        -8.49611        -3.36395
   N       -0.34189        -9.41727        -3.89620
   C        1.42243        -6.53086        -3.52839
   N        2.08840        -5.89107        -4.20676
   C       -1.13976        -9.09655        -0.50506
   C       -1.68493        -9.39543         0.73083
   S       -1.29892        -8.18266         1.94085
   C       -2.46974       -10.54091         1.06797
   C       -3.03138       -10.72933         2.33072
   N       -3.75114       -11.77068         2.70774
   C       -4.00403       -12.76895         1.87387
   C       -3.50691       -12.71714         0.54318
   C       -2.72879       -11.58083         0.13578
   N       -2.33840       -11.68448        -1.13424
   S       -2.89260       -13.06044        -1.74640
   N       -3.65474       -13.60041        -0.44205
   C       -4.77024       -13.86280         2.37230
   C       -5.12099       -15.03704         1.73038
   C       -5.86508       -15.86770         2.56336
   C       -6.07839       -15.30995         3.84237
   S       -5.35795       -13.77350         4.01740
   C       -6.83597       -16.22887         4.61071
   C       -7.09952       -17.36492         3.81630
   C       -6.48603       -17.17984         2.51168
   C       -6.46411       -18.07966         1.48701
   C       -7.08391       -19.34139         1.61172
   N       -7.59482       -20.36038         1.73652
   C       -5.82185       -17.81291         0.25915
   N       -5.30676       -17.59815        -0.74213
   C       -7.81350       -18.34364         4.49075
   C       -8.09902       -17.97718         5.80010
   S       -7.49230       -16.36687         6.17298
   C       -8.81590       -18.69180         6.78161
   C       -9.11125       -20.02246         6.82493
   C      -10.22385       -20.47612         7.70523
   O      -10.77868       -19.83151         8.56236
   C      -10.52790       -21.85291         7.25962
   C       -9.59421       -22.24653         6.28330
   C       -8.61040       -21.17785         6.10994
   C       -7.35106       -21.35743         5.60202
   C       -6.33096       -20.38739         5.66265
   N       -5.46302       -19.63795         5.71363
   C       -6.89408       -22.57303         5.04770
   N       -6.47528       -23.54039         4.59617
   C       -9.70628       -23.48728         5.68060
   C      -10.74414       -24.32487         6.07456
   C      -11.65453       -23.93579         7.06035
   C      -11.55169       -22.68657         7.65936
  Br      -13.04493       -25.10081         7.58819
  Br      -10.91017       -26.01428         5.24566
   H        5.39442         1.59381         0.03558
   H        3.64547        -0.62055        -4.06342
   H        2.45998        -2.69782         1.74447
   H        2.04477        -4.52039        -1.73081
   H       -1.27728        -9.73615        -1.35759
   H       -2.88703        -9.97982         3.09852
   H       -4.83481       -15.24611         0.71558
   H       -8.15698       -19.26239         4.05175
   H       -9.25276       -18.10354         7.58294
   H       -9.02545       -23.81400         4.91102
   H      -12.25352       -22.37495         8.41721
*
