# ORCA input file
# SCF done       -185.387407058112          0.000322054622
! CAM-B3LYP def2-SVP def2/J RIJCOSX Grid4 TightSCF
%maxcore 5000
%tddft
    Mode sTDDFT
    Ethresh 5.0
    maxcore 5000
end

%pal
  nprocs 6
  end
* xyz 0 1
   C        3.79068       -19.99006         1.09218
   N        5.10881       -20.27223         1.11512
   C        5.74580       -21.51845         0.78872
   C        5.84505       -21.71628        -0.72244
   N        5.82973       -19.20438         1.43854
   C        4.97104       -18.21517         1.63644
   C        3.64769       -18.66086         1.42923
   C        2.37877       -17.88240         1.53781
   C        2.15060       -16.99187         0.31550
   C        5.43571       -16.84761         2.00122
   C        6.04821       -16.13549         0.77985
   C        6.39649       -14.72650         1.11377
   C        5.78557       -13.67090         0.58168
   N        6.07241       -12.36622         0.93401
   C        5.46402       -11.26246         0.45178
   S        4.22419       -11.36991        -0.75458
   C        4.03238        -9.64094        -0.69462
   N        3.08936        -9.07107        -1.53686
   O        2.94448        -7.85840        -1.50026
   O        2.46386        -9.83284        -2.26394
   C        4.87452        -9.03714         0.20478
   C        5.70959        -9.94544         0.87102
   C        6.70028        -9.59971         1.86363
   C        6.68362        -8.47737         2.59803
   C        7.66297        -8.13522         3.61000
   C        8.97294        -8.63308         3.57510
   C        9.84593        -8.31269         4.58531
   C        9.43397        -7.50796         5.66164
   C        8.14850        -6.98730         5.69265
   C        7.28271        -7.29384         4.66188
   C       10.53795        -7.37572         6.58642
   C       11.64353        -8.07294         6.06823
   C       11.29269        -8.71855         4.74731
   C       12.15944        -8.16317         3.60185
   C       12.06293        -6.64828         3.46845
   C       11.44591       -10.24902         4.81423
   C       10.60342       -10.87870         5.91711
   C       12.83214        -8.10342         6.75185
   C       12.93891        -7.46529         8.00088
   C       11.82143        -6.78136         8.50582
   C       10.63360        -6.72427         7.80838
   C       14.18621        -7.53062         8.71180
   C       14.36500        -7.26052        10.03058
   C       15.60717        -7.31922        10.68957
   C       15.76359        -7.13034        12.03897
   C       16.97186        -7.12951        12.77773
   C       16.81342        -6.92416        14.11533
   C       15.46953        -6.76606        14.51716
   S       14.40812        -6.86161        13.12771
   C       14.97323        -6.58533        15.79385
   C       15.69338        -6.45503        17.00169
   C       14.90298        -6.30605        18.10000
   C       13.50984        -6.32105        17.83409
   S       13.25324        -6.51089        16.10562
   C       12.51803        -6.22049        18.77434
   C       11.12010        -6.28109        18.58701
   C       10.19171        -6.18269        19.68494
   C        8.90684        -6.30525        19.20270
   C        7.65308        -6.29094        19.85611
   C        6.53502        -6.45766        19.08809
   C        5.14332        -6.50228        19.42251
   C        4.41401        -6.70361        18.26839
   C        5.33343        -6.78814        17.17035
   C        6.62355        -6.64116        17.64896
   C        7.86971        -6.65031        16.99508
   C        8.99745        -6.48486        17.76341
   C       10.37541        -6.46011        17.42168
   C        2.97686        -6.81024        18.20088
   C        2.26562        -7.01688        17.09567
   H        3.05742       -20.73577         0.85758
   H        5.17651       -22.33663         1.24028
   H        6.74416       -21.48944         1.23004
   H        4.85427       -21.73416        -1.17062
   H        6.34511       -22.65525        -0.94295
   H        6.41248       -20.90294        -1.16745
   H        2.40581       -17.26046         2.43652
   H        1.54413       -18.57976         1.63690
   H        2.94518       -16.25532         0.22598
   H        1.20212       -16.46649         0.40094
   H        2.13364       -17.59205        -0.59167
   H        6.19120       -16.91858         2.78591
   H        4.59341       -16.26459         2.37703
   H        5.33902       -16.15855        -0.04894
   H        6.94132       -16.68818         0.48127
   H        7.15880       -14.58743         1.86933
   H        5.01809       -13.77239        -0.17181
   H        6.76807       -12.23097         1.65602
   H        4.88805        -7.97232         0.34702
   H        7.49099       -10.32201         2.02261
   H        5.85536        -7.78986         2.49357
   H        9.29504        -9.24331         2.74401
   H        7.82982        -6.35213         6.50556
   H        6.27720        -6.89769         4.67293
   H       11.84479        -8.62988         2.66563
   H       13.19888        -8.44558         3.78291
   H       11.03851        -6.34535         3.26341
   H       12.69401        -6.30337         2.65249
   H       12.38734        -6.16106         4.38523
   H       12.49813       -10.48856         4.98152
   H       11.15802       -10.67257         3.84911
   H       10.88937       -10.48356         6.88916
   H       10.74456       -11.95730         5.92880
   H        9.54722       -10.66930         5.76097
   H       13.68805        -8.63095         6.35416
   H       11.90010        -6.26935         9.45231
   H        9.79011        -6.18227         8.20988
   H       15.04362        -7.85824         8.13578
   H       13.51464        -6.99846        10.64641
   H       16.49542        -7.52117        10.10521
   H       17.92126        -7.27835        12.29364
   H       17.62327        -6.89325        14.82245
   H       16.76836        -6.47077        17.02665
   H       15.27518        -6.19283        19.10346
   H       12.85328        -6.09582        19.79738
   H       10.47873        -6.03953        20.71200
   H        7.59685        -6.15511        20.92744
   H        4.74490        -6.39725        20.41531
   H        5.05949        -6.94190        16.14270
   H        7.92889        -6.78714        15.92467
   H       10.75622        -6.56963        16.42489
   H        2.46831        -6.70970        19.15215
   H        2.72524        -7.12477        16.12820
   H        1.19187        -7.08638        17.12163
*
