# ORCA input file
# SCF done       -213.290130345227          0.000793001798
! CAM-B3LYP def2-SVP def2/J RIJCOSX Grid4 TightSCF
%maxcore 5000
%tddft
    Mode sTDDFT
    Ethresh 5.0
    maxcore 5000
end

%pal
  nprocs 6
  end
* xyz 0 1
   C       -2.00900        -0.78119         0.32987
   C       -2.46576        -1.96883         0.83800
   C       -1.71782        -3.16501         0.84866
   N       -1.15763        -4.16608         0.89202
   C       -3.74642        -2.17652         1.39381
   N       -4.77260        -2.43933         1.83667
   C       -0.73077        -0.57345        -0.33679
   C       -0.66949         0.76467        -0.80135
   C        0.41486         1.26102        -1.48426
   C        1.48542         0.39634        -1.72987
   C        1.41687        -0.93719        -1.25906
   C        0.32408        -1.43826        -0.56213
   S        2.85233        -1.82243        -1.66827
   C        3.51563        -0.43156        -2.45369
   C        2.70759         0.65036        -2.41380
   C       -1.89830         1.47936        -0.41634
   O       -2.10477         2.66838        -0.53319
   C       -2.74751         0.46837         0.27386
   C       -3.93296         0.73709         0.88251
   C       -4.74094         1.88884         0.63371
   C       -5.49665         2.47567         1.67139
   C       -6.30087         3.65050         1.45528
   N       -7.08143         4.10797         2.44392
   C       -7.00461         3.55985         3.62912
   C       -6.09882         2.47451         3.87874
   N       -5.40605         1.94543         2.90377
   C       -5.96984         1.95650         5.19199
   N       -5.89078         1.58166         6.27138
   C       -7.83069         4.06453         4.66325
   N       -8.47128         4.48533         5.51464
   C       -6.33102         4.31195         0.20560
   C       -5.62915         3.69087        -0.84212
   C       -4.87302         2.47584        -0.63852
   N       -4.34712         2.02438        -1.77842
   S       -4.68886         3.05622        -2.95197
   N       -5.54386         4.11182        -2.10954
   C       -7.05183         5.54512         0.02296
   C       -7.77847         5.80511        -1.15549
   C       -8.44140         7.06826        -1.38292
   N       -8.90578         7.33377        -2.61333
   C       -8.88670         6.41044        -3.53843
   C       -8.48480         5.07000        -3.20833
   N       -7.92634         4.82231        -2.05564
   C       -8.67632         4.01065        -4.12758
   N       -8.82290         3.17707        -4.89982
   C       -9.29562         6.73276        -4.85431
   N       -9.62957         6.95363        -5.92806
   C       -8.54188         8.05867        -0.37783
   C       -7.84392         7.77645         0.81465
   C       -7.09168         6.55404         1.00228
   N       -6.46008         6.53747         2.17906
   S       -6.82069         7.86807         2.98935
   N       -7.76110         8.56407         1.89471
   C       -9.28273         9.28809        -0.57185
   C       -8.88657        10.45626         0.10279
   C       -9.59561        11.62002        -0.05725
   C      -10.71372        11.64404        -0.91701
   C      -11.11753        10.49575        -1.58814
   C      -10.41002         9.32890        -1.40704
   C      -11.28272        12.96604        -0.90816
   C      -10.54717        13.76053        -0.00987
   C       -9.40635        12.96880         0.60504
   C       -9.67621        12.88983         2.12571
   C       -8.65348        12.14088         2.96939
   C       -8.07912        13.68672         0.25964
   C       -6.84314        12.81179         0.08818
   C      -10.89130        15.06933         0.20953
   C      -11.98173        15.62826        -0.48270
   C      -12.68221        14.82665        -1.40336
   C      -12.35294        13.50722        -1.61293
   C      -12.41057        16.98108        -0.28473
   C      -12.03412        17.80710         0.72814
   C      -12.52210        19.11734         0.87863
   C      -12.23681        19.93179         1.94364
   C      -12.70875        21.25239         2.15798
   C      -12.29572        21.81396         3.32436
   C      -11.47059        20.97020         4.10890
   S      -11.22412        19.43947         3.29379
   C      -10.92574        21.23548         5.34419
   C      -11.06849        22.42569         6.11191
   C      -10.43845        22.39601         7.30679
   C       -9.74209        21.17121         7.57930
   S       -9.94209        20.07166         6.20553
   C       -9.04220        20.85126         8.67617
   H        0.43247         2.28522        -1.82344
   H        0.32259        -2.45922        -0.21862
   H        4.48645        -0.51129        -2.90298
   H        2.95421         1.60235        -2.84803
   H       -4.31496         0.06470         1.64007
   H       -8.01280        10.41276         0.72685
   H      -11.98646        10.51244        -2.22836
   H      -10.74416         8.42693        -1.89294
   H      -10.65434        12.41979         2.26068
   H       -9.75295        13.91422         2.49881
   H       -8.58721        11.09699         2.67910
   H       -8.96141        12.17949         4.01260
   H       -7.67147        12.59941         2.89502
   H       -7.88830        14.43072         1.03590
   H       -8.22983        14.22823        -0.67846
   H       -6.61477        12.24866         0.98750
   H       -5.98922        13.44811        -0.13784
   H       -6.97347        12.11679        -0.73725
   H      -10.31881        15.67894         0.89116
   H      -13.51065        15.26285        -1.94296
   H      -12.91128        12.90474        -2.31335
   H      -13.13736        17.35403        -0.99653
   H      -11.34985        17.45931         1.49036
   H      -13.17978        19.51130         0.11464
   H      -13.34363        21.73957         1.43900
   H      -12.56221        22.80454         3.64621
   H      -11.63844        23.26194         5.74794
   H      -10.43655        23.19865         8.02256
   H       -8.94797        21.54869         9.48966
   H       -8.55783        19.89776         8.78038
*
