# ORCA input file
# SCF done       -198.241042518043          0.000712986497
! CAM-B3LYP def2-SVP def2/J RIJCOSX Grid4 TightSCF
%maxcore 5000
%tddft
    Mode sTDDFT
    Ethresh 5.0
    maxcore 5000
end

%pal
  nprocs 6
  end
* xyz 0 1
   C      -11.64989         0.84256         1.40025
   C      -12.13426        -0.34198         1.89219
   C      -12.98049        -0.44849         3.01434
   N      -13.67140        -0.59328         3.91958
   C      -11.84481        -1.60351         1.33387
   N      -11.63298        -2.64859         0.90911
   C      -11.91985         2.17065         1.94693
   C      -11.24719         3.13985         1.15775
   C      -11.30684         4.48608         1.42593
   C      -12.06505         4.89839         2.52665
   C      -12.73182         3.92551         3.30874
   C      -12.67239         2.56318         3.03626
   S      -13.60751         4.65145         4.62077
   C      -13.07342         6.23064         4.10956
   C      -12.28030         6.21710         3.01167
  Br      -13.61204         7.74707         5.07232
   C      -10.52339         2.45329         0.08241
   O       -9.83044         2.96250        -0.79570
   C      -10.78509         1.02326         0.25814
   C      -10.23582         0.08528        -0.58488
   N       -9.44206         0.47699        -1.58528
   C       -8.80949        -0.30131        -2.49836
   S       -8.98619        -2.02852        -2.50632
   C       -7.90681        -2.10350        -3.85994
   N       -7.61489        -3.36461        -4.39859
   O       -6.85502        -3.40918        -5.34764
   O       -8.14893        -4.32389        -3.87192
   C       -7.44584        -0.88163        -4.26944
   C       -7.95381         0.18212        -3.49764
   C       -7.65982         1.57880        -3.68506
   C       -6.70552         2.05127        -4.50764
   C       -6.37849         3.44046        -4.72981
   C       -5.20852         3.73744        -5.44802
   C       -4.86029         5.04429        -5.67893
   C       -5.67645         6.09263        -5.21887
   C       -6.83800         5.81294        -4.51238
   C       -7.17626         4.49708        -4.26981
   C       -5.08055         7.34907        -5.61917
   C       -3.88997         7.07672        -6.31478
   C       -3.65169         5.58761        -6.40339
   C       -2.34685         5.18515        -5.69052
   C       -2.31251         5.61884        -4.22995
   C       -3.60821         5.11194        -7.86710
   C       -4.86920         5.47304        -8.64298
   C       -3.12014         8.10055        -6.80715
   C       -3.53020         9.43220        -6.63253
   C       -4.71935         9.68587        -5.93557
   C       -5.49138         8.66087        -5.42726
   C       -2.69464        10.47472        -7.18240
   C       -3.01398        11.77655        -7.29099
   C       -2.17856        12.80505        -7.85046
   C       -2.66629        14.10620        -7.98708
   C       -1.92924        15.18154        -8.53563
   N       -2.61214        16.36347        -8.56712
   C       -3.78815        16.25127        -8.09461
   S       -4.25079        14.66683        -7.52899
   C       -0.60216        15.01010        -8.97087
   C       -0.10603        13.71338        -8.82798
   C       -0.85476        12.62975        -8.30083
   N       -0.17953        11.44463        -8.28800
   C        0.99548        11.55230        -8.76770
   S        1.46847        13.13809        -9.30668
   C        0.16138        16.10565        -9.52432
   C        1.54505        16.24693        -9.53184
   C        1.87485        17.47029       -10.17777
   C        3.08898        18.06893       -10.43908
   C        3.07353        19.29742       -11.11079
   C        4.10325        20.14703       -11.51955
   C        3.54463        21.28003       -12.16870
   C        2.16189        21.13609       -12.16449
   C        1.82928        19.91292       -11.51413
   C        0.61709        19.31603       -11.25114
   C        0.63157        18.08552       -10.57670
   C       -0.40099        17.24483       -10.16536
   C        4.33191        22.36042       -12.71627
   C        3.84862        23.43916       -13.32544
   H      -10.78411         5.19936         0.80820
   H      -13.19766         1.86190         3.66274
   H      -11.86329         7.09966         2.56203
   H      -10.41472        -0.97629        -0.47346
   H       -9.30951         1.50484        -1.62874
   H       -6.77809        -0.77814        -5.10439
   H       -8.24861         2.27494        -3.10585
   H       -6.08837         1.34873        -5.05179
   H       -4.58659         2.92893        -5.80584
   H       -7.47111         6.61222        -4.15707
   H       -8.08312         4.28418        -3.72535
   H       -1.50635         5.63659        -6.22151
   H       -2.23556         4.10026        -5.74950
   H       -2.40043         6.69992        -4.14853
   H       -1.37460         5.31419        -3.77130
   H       -3.13056         5.16552        -3.67424
   H       -3.47175         4.02841        -7.87991
   H       -2.74163         5.56298        -8.35478
   H       -5.74553         5.01776        -8.18667
   H       -4.79182         5.11907        -9.66837
   H       -5.01311         6.55107        -8.66075
   H       -2.20188         7.89809        -7.33981
   H       -5.03583        10.70582        -5.78053
   H       -6.40201         8.87873        -4.88891
   H       -1.73207        10.15489        -7.55522
   H       -3.98212        12.13120        -6.95973
   H       -4.48435        17.06471        -8.03213
   H        1.68310        10.73243        -8.84236
   H        2.26317        15.58023        -9.09237
   H        4.02214        17.61082       -10.14170
   H        5.15564        19.97982       -11.37065
   H        1.44722        21.82242       -12.57903
   H       -0.31750        19.77266       -11.54575
   H       -1.45204        17.40889       -10.30751
   H        5.40318        22.24773       -12.60191
   H        2.79220        23.59452       -13.46166
   H        4.49673        24.20730       -13.71010
*
