# ORCA input file
# SCF done       -200.753237416949          0.000940929910
! CAM-B3LYP def2-SVP def2/J RIJCOSX Grid4 TightSCF
%maxcore 5000
%tddft
    Mode sTDDFT
    Ethresh 5.0
    maxcore 5000
end

%pal
  nprocs 6
  end
* xyz 0 1
   C       -0.71944         4.47839         5.43024
   C        0.19837         4.66383         6.42632
   F        0.70992         5.87994         6.65188
   C        0.61673         3.58180         7.22680
   F        1.51633         3.79248         8.19579
   C        0.11149         2.32844         7.01972
   C       -0.83570         2.10597         6.00183
   C       -1.25971         3.19913         5.19196
   C       -2.21236         3.00015         4.16565
   C       -2.72546         1.74813         3.95667
   C       -2.29514         0.66041         4.77170
   C       -1.37679         0.82182         5.76875
   C       -3.00122        -0.55700         4.35001
   O       -2.90093        -1.68425         4.81779
   C       -3.88842        -0.15242         3.25398
   C       -3.71288         1.25716         2.99594
   C       -4.33051         2.00666         2.02830
   C       -5.27265         1.50485         1.10978
   N       -6.04209         1.14830         0.33486
   C       -4.09490         3.38148         1.81915
   N       -3.94533         4.49801         1.59955
   C       -4.75118        -1.03955         2.66007
   N       -4.77538        -2.32520         3.03337
   C       -5.59733        -3.30253         2.54899
   S       -5.96929        -4.65568         3.56917
   C       -7.04715        -5.25288         2.35228
   N       -7.70700        -6.46717         2.60772
   O       -8.45823        -6.89244         1.75483
   O       -7.46465        -7.00058         3.67498
   C       -7.11174        -4.45944         1.23865
   C       -6.26502        -3.33680         1.32372
   C       -6.04526        -2.39634         0.24791
   C       -6.99724        -1.98574        -0.60671
   C       -6.76522        -1.05346        -1.65950
   C       -7.74202        -0.39095        -2.38856
   C       -9.10418        -0.59336        -2.10933
   N      -10.19337        -0.78961        -1.81002
   C       -7.19668         0.51548        -3.33456
   C       -5.80596         0.51258        -3.28521
   S       -5.15128        -0.57629        -2.12966
   S       -5.02838         1.61464        -4.37417
   C       -6.59978         2.10655        -4.91781
   C       -7.66167         1.44802        -4.30745
   C       -8.90833         1.88743        -4.82797
   C      -10.11887         1.22045        -4.57916
   N      -11.04722         0.55698        -4.45463
   C       -8.75314         2.88377        -5.78557
   S       -7.07647         3.22361        -6.14173
   C       -9.77722         3.61240        -6.45804
   C       -9.52195         4.26485        -7.67650
   C      -10.55553         4.93292        -8.43455
   N      -10.24887         5.48777        -9.59971
   C       -9.00811         5.44919       -10.05551
   C       -7.98411         4.81971        -9.28780
   N       -8.26209         4.24812        -8.14173
   C       -6.64715         4.80420        -9.76056
   N       -5.57803         4.80405       -10.17047
   C       -8.70941         6.03514       -11.30496
   N       -8.42484         6.49599       -12.31619
   C      -11.89684         5.01477        -7.96164
   C      -12.11469         4.44266        -6.67445
   C      -11.07998         3.76909        -5.93495
   N      -11.49928         3.38766        -4.73187
   S      -13.04490         3.78130        -4.56177
   N      -13.25664         4.48711        -5.99396
   C      -12.98227         5.60663        -8.61494
   C      -13.10822         6.23161        -9.84162
   C      -14.35336         6.74255       -10.29239
   C      -14.32208         7.31498       -11.52750
   C      -13.03945         7.28334       -12.11298
   S      -11.87825         6.51172       -11.04290
   C      -12.65301         7.76198       -13.35016
   C      -13.47346         8.40226       -14.32339
   C      -12.81690         8.75821       -15.44948
   C      -11.42115         8.42283       -15.44404
   S      -11.01209         7.62803       -13.91379
   C      -10.51941         8.64505       -16.41063
   H       -1.02875         5.31751         4.82679
   H        0.44180         1.51096         7.64131
   H       -2.51471         3.84810         3.57271
   H       -1.06849        -0.01789         6.37280
   H       -5.45631        -0.72887         1.90182
   H       -4.15105        -2.54171         3.82813
   H       -7.71934        -4.69972         0.38528
   H       -5.03690        -2.01540         0.13901
   H       -8.02286        -2.30784        -0.48436
   H      -13.90033         5.55080        -8.04036
   H      -15.23664         6.66546        -9.68278
   H      -15.17769         7.74735       -12.01502
   H      -14.52075         8.57333       -14.14897
   H      -13.26313         9.25002       -16.29544
   H      -10.80271         9.12696       -17.33017
   H       -9.49303         8.34590       -16.29996
*
