# ORCA input file
# SCF done       -183.092099194991          0.000243672468
! CAM-B3LYP def2-SVP def2/J RIJCOSX Grid4 TightSCF
%maxcore 5000
%tddft
    Mode sTDDFT
    Ethresh 5.0
    maxcore 5000
end

%pal
  nprocs 6
  end
* xyz 0 1
   C        4.66331        -2.07783         9.30163
   C        5.58649        -2.52527         8.43881
   C        6.96709        -2.14634         8.35339
   C        7.65751        -2.77016         7.37223
   C        6.88837        -3.68719         6.60518
   S        5.23639        -3.72787         7.18628
   C        7.31568        -4.45731         5.54705
   C        8.60936        -4.51391         4.97727
   C        8.71048        -5.37386         3.92741
   C        7.50776        -6.04691         3.60503
   S        6.23224        -5.54614         4.69779
   C        7.34127        -6.95630         2.58662
   C        6.18064        -7.63738         2.23517
   S        4.64360        -7.49681         3.04382
   C        3.85311        -8.62807         1.98674
   C        4.76225        -9.10382         1.02774
   C        6.06566        -8.55092         1.16617
   N        7.06205        -8.89364         0.33587
   C        6.78238        -9.75913        -0.61230
   C        7.90722       -10.15032        -1.53415
   N        9.14475        -9.42686        -1.32970
   C        5.47376       -10.31121        -0.75863
   C        5.14181       -11.27831        -1.86035
   N        5.32173       -10.63274        -3.15718
   N        4.49268        -9.98726         0.04611
   C        2.48902        -8.95637         2.14093
   C        1.87395        -9.83148         1.30907
   N        0.56655       -10.19808         1.40670
   C       -0.06248       -11.01279         0.53094
   S        0.75664       -11.52285        -0.91524
   C       -0.69228       -12.33137        -1.43762
   N       -0.64160       -12.99926        -2.65340
   O       -1.64797       -13.57349        -3.04041
   O        0.42447       -12.96071        -3.25757
   C       -1.72809       -12.20549        -0.54938
   C       -1.38936       -11.47289         0.60382
   C       -2.33250       -11.28729         1.66860
   C       -2.08199       -10.97363         2.96099
   C       -3.10270       -10.85273         3.93837
   S       -2.69779       -10.47674         5.58495
   C       -4.33611       -10.54891         6.14275
   C       -5.18000       -10.85501         5.06908
   C       -4.48663       -11.01692         3.82622
   N       -5.16061       -11.30252         2.69241
   C       -6.45849       -11.42732         2.78080
   C       -7.20486       -11.75823         1.52071
   N       -7.75569       -13.10811         1.62233
   C       -7.14933       -11.27431         4.02290
   C       -8.64420       -11.39858         4.09143
   N       -9.24921       -10.23572         3.44649
   N       -6.52107       -10.98836         5.13244
   C       -4.64763       -10.30567         7.50509
   C       -5.90036       -10.40463         8.00162
   C       -6.25309       -10.20814         9.38333
   C       -5.37898       -10.47295        10.40094
   S       -6.05520       -10.36281        11.97456
   C       -7.59169        -9.92690        11.28793
   C       -7.55961        -9.84476         9.88634
   C       -8.71254        -9.40653         9.19231
   C       -8.65024        -9.11190         7.72159
   C       -9.89791        -9.20394         9.88180
   C      -11.15434        -8.82672         9.15024
   C       -9.93242        -9.33530        11.28635
   C       -8.76091        -9.66927        11.98465
   S       -9.00581        -9.72038        13.70274
   C      -10.66932        -9.30180        13.48389
   C      -11.01821        -9.13211        12.19176
   H        4.91817        -1.34566        10.04724
   H        3.64887        -2.43095         9.27759
   H        7.38022        -1.42174         9.03238
   H        8.70045        -2.60594         7.16662
   H        9.42347        -3.92138         5.35398
   H        9.61279        -5.54903         3.36825
   H        8.20252        -7.18101         1.97069
   H        7.57239       -10.01368        -2.56681
   H        8.11069       -11.21930        -1.39818
   H        9.43280        -9.52300        -0.36049
   H        8.98615        -8.43654        -1.48733
   H        4.11794       -11.64489        -1.68923
   H        5.82933       -12.12897        -1.81526
   H        4.65808        -9.87046        -3.25392
   H        5.12790       -11.29737        -3.89838
   H        1.95016        -8.48019         2.94942
   H        2.44173       -10.29015         0.51267
   H        0.00305        -9.78329         2.14018
   H       -2.69213       -12.64890        -0.72023
   H       -3.36392       -11.47387         1.40491
   H       -1.07527       -10.85581         3.34139
   H       -6.51639       -11.62579         0.67211
   H       -8.04183       -11.06187         1.42038
   H       -7.00188       -13.78563         1.68293
   H       -8.29522       -13.32235         0.79078
   H       -8.93030       -11.51450         5.14899
   H       -8.94697       -12.28903         3.53509
   H       -9.01261        -9.39240         3.95999
   H      -10.25910       -10.32663         3.44482
   H       -3.82025       -10.01101         8.13706
   H       -6.68348       -10.69820         7.32212
   H       -4.36106       -10.79643        10.30561
   H       -8.89607        -9.99493         7.13143
   H       -7.65415        -8.78005         7.44241
   H       -9.35355        -8.32436         7.46325
   H      -11.14262        -7.76874         8.88458
   H      -12.02928        -9.00890         9.76544
   H      -11.25740        -9.40794         8.23666
   H      -11.29162        -9.20555        14.35203
   H      -12.01487        -8.86165        11.89403
*
