# ORCA input file
# SCF done       -204.999793726696          0.000406392604
! CAM-B3LYP def2-SVP def2/J RIJCOSX Grid4 TightSCF
%maxcore 5000
%tddft
    Mode sTDDFT
    Ethresh 5.0
    maxcore 5000
end

%pal
  nprocs 6
  end
* xyz 0 1
   C       -8.17611        -0.38796        -2.38077
   C       -7.19765        -1.33197        -2.56806
   C       -7.26476        -2.36246        -3.52845
   N       -7.25631        -3.22316        -4.28849
   C       -5.98267        -1.40970        -1.85661
   N       -4.96957        -1.54548        -1.33238
   C       -9.41393        -0.29622        -3.14909
   C      -10.13130         0.84789        -2.72312
   C      -11.34458         1.20518        -3.25843
   C      -11.88068         0.39041        -4.26103
   C      -11.15879        -0.75265        -4.67888
   C       -9.92944        -1.11119        -4.13993
   S      -12.00480        -1.62343        -5.92237
   C      -13.29890        -0.45617        -5.86376
   C      -13.10937         0.53565        -4.96171
  Br      -14.77911        -0.65952        -6.99752
   C       -9.37806         1.52815        -1.65001
   O       -9.71015         2.54479        -1.07660
   C       -8.16684         0.70295        -1.42764
   C       -7.23949         0.92505        -0.44357
   C       -7.27123         2.00261         0.46132
   C       -6.35640         2.12846         1.46494
   C       -6.35792         3.18753         2.39320
   O       -7.25397         4.20390         2.31181
   C       -7.02603         5.06258         3.33347
   C       -5.95904         4.59079         4.09884
   C       -5.52612         3.39566         3.49821
   O       -4.52185         2.59628         3.89268
   O       -5.38776         5.12206         5.21053
   C       -7.80465         6.23580         3.48323
   C       -8.77418         6.61660         2.60953
   C       -9.52517         7.80491         2.75552
   C      -10.43340         8.23412         1.83976
   C      -11.16224         9.43999         1.96172
   O      -11.05425        10.22496         3.07239
   C      -12.03391        10.05746         1.07978
   C      -12.67935         9.93945        -0.23250
   O      -12.61088         9.08437        -1.07578
   N      -13.45062        11.09678        -0.32023
   C      -13.38111        11.94877         0.78238
   O      -13.97910        12.98597         0.89853
   C      -12.45202        11.26299         1.68377
   C      -11.83126        11.33730         2.92188
   C      -11.91910        12.32600         3.92173
   C      -11.37355        12.18535         5.16798
   C      -11.41770        13.11470         6.21886
   C      -11.79056        14.44081         6.19199
   C      -11.83978        15.28241         7.33256
   C      -12.17633        16.57462         7.06663
   C      -12.39372        16.83242         5.69482
   S      -12.19483        15.37033         4.76236
   C      -12.69248        18.04864         5.10265
   C      -12.92615        19.28260         5.74775
   C      -13.15406        20.31493         4.88743
   C      -13.10401        19.94878         3.52243
   S      -12.77952        18.23985         3.36719
   C      -13.22170        20.80661         2.44755
   C      -13.14145        20.40818         1.11606
   C      -13.09910        21.22109         0.00530
   C      -12.85468        22.63072        -0.13388
   C      -12.13058        23.43436         0.71742
   C      -11.90075        24.80602         0.49686
   N      -11.69904        25.93101         0.38200
   C      -11.43106        22.97058         1.84869
   N      -10.80041        22.64887         2.75346
   C      -13.30897        23.02345        -1.46766
   C      -13.62892        21.85225        -2.19898
   C      -13.44951        20.67243        -1.32495
   O      -13.59408        19.50620        -1.61858
   C      -14.04510        21.88983        -3.50654
   C      -14.16195        23.14303        -4.11897
   C      -13.85491        24.30618        -3.37547
   C      -13.42539        24.26810        -2.05362
   S      -14.07714        25.74695        -4.32094
   C      -14.56764        24.77933        -5.68613
   C      -14.56829        23.44674        -5.44759
  Br      -15.03406        25.62114        -7.29632
   H      -11.86504         2.08443        -2.91242
   H       -9.42145        -1.99329        -4.49176
   H      -13.80588         1.33688        -4.79477
   H       -6.42325         0.22328        -0.32908
   H       -8.05098         2.74214         0.35970
   H       -5.57505         1.39352         1.60167
   H       -4.11408         2.97626         4.68248
   H       -5.82968         5.94386         5.44887
   H       -7.58432         6.85604         4.34309
   H       -8.97222         5.99262         1.74993
   H       -9.34759         8.41062         3.63496
   H      -10.62442         7.66783         0.94001
   H      -14.02159        11.30495        -1.12707
   H      -12.50059        13.19204         3.64681
   H      -10.88824        11.24321         5.38854
   H      -11.09698        12.75281         7.18817
   H      -11.62436        14.90280         8.31585
   H      -12.25292        17.34526         7.81181
   H      -12.92338        19.37755         6.81846
   H      -13.33914        21.33069         5.18736
   H      -13.39333        21.84763         2.68196
   H      -13.18627        19.34361         0.90592
   H      -14.27280        20.98196        -4.04268
   H      -13.20628        25.18201        -1.52683
   H      -14.84334        22.70649        -6.17654
*
