# ORCA input file
# SCF done       -194.000273065359          0.000864987006
! CAM-B3LYP def2-SVP def2/J RIJCOSX Grid4 TightSCF
%maxcore 5000
%tddft
    Mode sTDDFT
    Ethresh 5.0
    maxcore 5000
end

%pal
  nprocs 6
  end
* xyz 0 1
   C       -4.84208         0.87749         3.75666
   C       -3.68757         0.36285         3.21684
   C       -3.00491        -0.75795         3.73187
   N       -2.40245        -1.66621         4.09399
   C       -3.00281         0.86403         2.09203
   N       -2.38391         1.20198         1.18349
   C       -5.52234         0.35185         4.93425
   C       -6.65091         1.16326         5.20851
   C       -7.50134         0.92283         6.25925
   C       -7.22811        -0.17609         7.08102
   C       -6.09970        -0.98206         6.80002
   C       -5.23802        -0.73667         5.73851
   S       -5.94887        -2.28886         7.93604
   C       -7.38471        -1.74196         8.76052
   C       -7.94879        -0.63792         8.21615
  Br       -8.00381        -2.68106        10.26169
   C       -6.72696         2.24073         4.20413
   O       -7.56756         3.12057         4.15710
   C       -5.59771         2.02578         3.29176
   C       -5.30702         2.74844         2.16398
   C       -5.94805         3.84882         1.57448
   S       -7.35361         4.66936         2.22021
   C       -7.42781         5.70652         0.85798
   C       -8.49247         6.74636         0.81335
   C       -9.85118         6.13149         0.46255
   C       -6.42673         5.44994        -0.06934
   C       -5.55588         4.41908         0.36055
   C       -4.40166         3.94523        -0.46334
   C       -4.87597         3.00013        -1.57087
   C       -6.25347         6.09219        -1.35048
   C       -7.21679         6.54519        -2.17283
   C       -6.89801         7.00880        -3.48397
   N       -5.70178         7.07906        -3.98542
   C       -5.72980         7.42171        -5.27805
   C       -6.98194         7.62816        -5.81626
   S       -8.19759         7.41549        -4.63251
   C       -6.83629         8.02320        -7.23313
   C       -5.51925         7.29592        -7.54261
   C       -4.62004         7.57248        -6.30017
   C       -4.06854         9.00763        -6.28742
   C       -3.44219         9.39098        -4.95113
   C       -3.53052         6.51657        -6.05907
   C       -2.22617         6.72643        -6.82289
   N       -5.16771         7.59953        -8.91518
   C       -6.33360         8.06919        -9.63047
   S       -7.84563         7.57381        -8.68136
   C       -4.34006         6.68213        -9.52807
   C       -3.84605         6.75404       -10.78895
   C       -3.96867         7.74398       -11.80700
   C       -3.30502         7.44666       -12.95267
   C       -2.61750         6.20654       -12.93338
   S       -2.82786         5.42931       -11.37644
   C       -1.86722         5.62517       -13.92792
   C       -1.64596         6.08816       -15.24858
   C       -0.84972         5.27200       -15.98333
   C       -0.39631         4.10288       -15.30211
   S       -1.04212         4.09751       -13.67358
   C        0.48438         3.20678       -15.83356
   C        1.09405         2.04089       -15.27615
   C        0.57848         1.24912       -14.24076
   O       -0.68740         1.57145       -13.87808
   C       -1.34904         1.02820       -12.75796
   C        1.33259         0.15244       -13.70739
   O        0.76355        -0.52574       -12.66613
   C        1.46814        -1.59649       -12.08671
   C        2.55709        -0.19485       -14.22737
   C        3.06615         0.52881       -15.31343
   C        2.33507         1.64209       -15.84524
   N        2.96601         2.21553       -16.86396
   S        4.34505         1.41794       -17.13146
   N        4.20912         0.31486       -15.96124
   H       -8.35207         1.56060         6.44124
   H       -4.39321        -1.38222         5.56740
   H       -8.83674        -0.16779         8.59752
   H       -4.44931         2.40356         1.60403
   H       -8.22650         7.51821         0.08948
   H       -8.57048         7.21189         1.79882
   H       -9.81212         5.62318        -0.49832
   H      -10.61238         6.90600         0.41655
   H      -10.13648         5.40570         1.22008
   H       -3.65971         3.43410         0.14978
   H       -3.90692         4.80541        -0.91793
   H       -5.36655         2.12961        -1.14115
   H       -4.02662         2.66230        -2.15834
   H       -5.57939         3.50663        -2.22831
   H       -5.24147         6.14279        -1.72787
   H       -8.26559         6.50071        -1.92780
   H       -6.74046         9.11377        -7.30322
   H       -5.75210         6.21601        -7.48365
   H       -3.34097         9.11106        -7.09300
   H       -4.88388         9.70417        -6.49300
   H       -2.55322         8.80313        -4.74463
   H       -4.15003         9.23126        -4.14144
   H       -3.16087        10.44160        -4.96285
   H       -3.32140         6.50349        -4.98815
   H       -3.94458         5.53661        -6.31173
   H       -1.66283         7.56387        -6.42142
   H       -2.40376         6.91078        -7.87885
   H       -1.60867         5.83566        -6.73213
   H       -6.39775         7.63660       -10.62727
   H       -6.34794         9.16158        -9.69007
   H       -4.04456         5.83903        -8.91800
   H       -4.51525         8.65585       -11.64465
   H       -3.27961         8.08598       -13.81728
   H       -2.08668         6.99856       -15.61479
   H       -0.56469         5.45734       -17.00422
   H        0.87512         3.46253       -16.81142
   H       -0.78464         1.18376       -11.83740
   H       -1.55487        -0.03542       -12.88830
   H       -2.28755         1.57983       -12.69945
   H        1.63898        -2.40288       -12.80644
   H        0.82946        -1.95929       -11.28256
   H        2.42564        -1.26945       -11.67014
   H        3.13561        -1.01546       -13.84147
*
