# ORCA input file
# SCF done       -192.048697953324          0.000606865924
! CAM-B3LYP def2-SVP def2/J RIJCOSX Grid4 TightSCF
%maxcore 5000
%tddft
    Mode sTDDFT
    Ethresh 5.0
    maxcore 5000
end

%pal
  nprocs 6
  end
* xyz 0 1
   C       -8.03364        -1.04123        -1.57255
   C       -7.31867        -1.74471        -0.63215
   C       -6.59489        -2.92215        -0.90916
   N       -5.98925        -3.88647        -1.06177
   C       -7.19065        -1.42556         0.73438
   N       -7.02733        -1.25552         1.86008
   C       -8.14506        -1.40674        -2.98127
   C       -8.96251        -0.45270        -3.63512
   C       -9.25838        -0.51775        -4.97391
   C       -8.72308        -1.58161        -5.70837
   C       -7.90918        -2.53178        -5.04864
   C       -7.60831        -2.46327        -3.69383
   S       -7.35375        -3.76483        -6.14098
   C       -8.21094        -2.99570        -7.45044
   C       -8.87892        -1.87420        -7.09104
  Br       -8.14428        -3.74745        -9.16801
   C       -9.39781         0.56126        -2.65599
   O      -10.09708         1.53010        -2.89111
   C       -8.81041         0.16498        -1.37175
   C       -8.98806         0.80246        -0.16795
   C       -9.70076         1.96501         0.15546
   S      -10.33016         3.12328        -0.98981
   C      -10.67493         4.21987         0.27697
   C      -10.37210         3.75442         1.52452
   C      -10.61169         4.51193         2.78814
   C       -9.83758         2.44309         1.47699
   C       -9.49421         1.70075         2.65461
   C       -9.63779         0.36254         2.79739
   C       -9.20950        -0.41756         3.91150
   C       -8.48637         0.02716         4.96609
   C       -8.01960        -0.83658         5.98857
   N       -8.17822        -2.12486         6.04337
   C       -7.56190        -2.66016         7.10128
   C       -6.90078        -1.76317         7.91737
   S       -7.06926        -0.16457         7.34443
   C       -6.43874        -2.46641         9.12457
   C       -6.23667        -3.88334         8.56055
   C       -7.40963        -4.09918         7.54958
   C       -6.97551        -4.97337         6.35621
   C       -8.01326        -5.09066         5.24477
   C       -8.68873        -4.68756         8.16507
   C       -9.24780        -3.98317         9.39476
   N       -6.01405        -4.70114         9.73172
   C       -5.45506        -3.90202        10.81685
   S       -4.93573        -2.27476        10.13637
   C       -5.68050        -6.03653         9.74766
   C       -5.10231        -6.82285         8.80329
   C       -4.45164        -6.53944         7.56826
   C       -3.88931        -7.61878         6.96983
   C       -4.06985        -8.84175         7.66431
   S       -4.99373        -8.56550         9.12715
   C       -3.58900       -10.08214         7.31888
   C       -2.82792       -10.43429         6.17724
   C       -2.47091       -11.74193         6.13364
   C       -2.91909       -12.52189         7.23978
   S       -3.85016       -11.49634         8.32650
   C       -2.61312       -13.83638         7.42985
   C       -2.99543       -14.69567         8.50465
   C       -4.00110       -14.42849         9.41075
   S       -4.29009       -15.65754        10.58040
   C       -3.02047       -16.60456         9.89364
   C       -2.41669       -15.97409         8.79934
   N       -1.41140       -16.77568         8.31310
   C       -0.52993       -16.46945         7.21436
   C        0.48807       -15.39315         7.59020
   C       -1.36508       -17.90468         9.09677
   C       -2.36998       -17.82911        10.07354
   S       -2.45778       -19.25042        11.04398
   C       -1.17184       -19.94283        10.11985
   C       -0.65652       -19.14057         9.13823
   C        0.47759       -19.59622         8.33566
   C        1.57572       -18.89704         8.08820
   H       -9.88314         0.22770        -5.44039
   H       -6.98198        -3.21320        -3.24111
   H       -9.45821        -1.27651        -7.77089
   H       -8.49025         0.35600         0.68374
   H      -11.11010         5.17270         0.04211
   H      -11.07870         5.46892         2.57221
   H       -9.67062         4.69403         3.30654
   H      -11.26063         3.94559         3.45451
   H       -9.13570         2.28928         3.48790
   H      -10.13155        -0.18964         2.00816
   H       -9.44774        -1.47100         3.88600
   H       -8.20523         1.06523         5.06368
   H       -7.24022        -2.42936         9.86951
   H       -5.31948        -3.83149         7.94848
   H       -6.07294        -4.53416         5.92444
   H       -6.72829        -5.97045         6.72407
   H       -8.37050        -4.10575         4.95900
   H       -8.85657        -5.70440         5.54894
   H       -7.55511        -5.55786         4.37621
   H       -9.45524        -4.66756         7.39011
   H       -8.48444        -5.73101         8.41663
   H       -9.40814        -2.92480         9.19886
   H       -8.59082        -4.10189        10.25225
   H      -10.20879        -4.42434         9.65177
   H       -4.58401        -4.37965        11.26574
   H       -6.20439        -3.70685        11.59269
   H       -5.91968        -6.50753        10.69603
   H       -4.35105        -5.53978         7.19024
   H       -3.32876        -7.56994         6.05343
   H       -2.56377        -9.70961         5.42802
   H       -1.88717       -12.18557         5.34566
   H       -1.99440       -14.27353         6.66014
   H       -4.63866       -13.56860         9.42901
   H       -1.12834       -16.14458         6.35716
   H       -0.01756       -17.39099         6.93322
   H       -0.01217       -14.46752         7.86425
   H        1.15162       -15.19974         6.75145
   H        1.08376       -15.71721         8.44020
   H       -0.82678       -20.92382        10.38224
   H        0.40295       -20.61991         7.98916
   H        1.71755       -17.89917         8.46651
   H        2.38737       -19.30910         7.51336
*
