# ORCA input file
# SCF done       -198.972498182006          0.000816773993
! CAM-B3LYP def2-SVP def2/J RIJCOSX Grid4 TightSCF
%maxcore 5000
%tddft
    Mode sTDDFT
    Ethresh 5.0
    maxcore 5000
end

%pal
  nprocs 6
  end
* xyz 0 1
   C       -8.70280        -1.60306         0.43880
   C       -8.32896        -2.64664        -0.36687
   C       -9.16580        -3.73732        -0.67761
   N       -9.81249        -4.64369        -0.95694
   C       -7.03304        -2.78661        -0.90550
   N       -5.98146        -2.96669        -1.33017
   C       -9.96291        -1.46702         1.15092
   C       -9.84089        -0.40904         2.08704
   C      -10.88191        -0.02639         2.89872
   C      -12.10391        -0.69603         2.75924
   C      -12.21537        -1.73967         1.80886
   C      -11.15617        -2.14865         1.00885
   S      -13.82528        -2.38413         1.75217
   C      -14.32254        -1.26406         2.98581
   C      -13.33448        -0.44961         3.42669
  Br      -16.11369        -1.24839         3.53314
   C       -8.49470         0.19359         1.97726
   O       -8.04678         1.10002         2.64700
   C       -7.85887        -0.48952         0.82503
   C       -6.82124        -0.00379         0.08268
   C       -5.96834         1.08437         0.39161
   S       -5.53323         2.14460        -0.92655
   C       -4.75102         3.22097         0.15391
   C       -4.76672         2.79625         1.44581
   C       -4.13064         3.53953         2.57152
   C       -5.43430         1.54231         1.59657
   C       -5.39934         0.80397         2.82214
   C       -5.42249        -0.54796         2.90875
   C       -5.37640        -1.25088         4.13485
   C       -5.54359        -2.60113         4.20131
   C       -5.60743        -3.39096         5.36797
   S       -6.50438        -4.86771         5.30100
   C       -6.38170        -5.15793         7.01875
   C       -5.56065        -4.16527         7.61166
   C       -5.12186        -3.17734         6.67650
   C       -4.23830        -2.16533         7.08805
   C       -3.85199        -2.10886         8.39884
   F       -3.00005        -1.15270         8.80193
   C       -4.32795        -3.04756         9.33303
   F       -3.93815        -2.95545        10.61398
   C       -5.16144        -4.06552         8.95218
   C       -7.18713        -6.18041         7.51353
   C       -7.37803        -6.63602         8.80374
   C       -8.46710        -7.40557         9.20699
   C       -9.66380        -7.61212         8.53383
   C      -10.79232        -8.27278         9.06176
   C      -11.91158        -8.20695         8.27477
   C      -11.71122        -7.50744         7.07338
   S      -10.06935        -6.94423         6.96568
   C      -12.61758        -7.21357         6.05825
   C      -13.99997        -7.45614         6.02547
   C      -14.62263        -6.93720         4.92118
   C      -13.75536        -6.27562         4.02944
   S      -12.11120        -6.37736         4.61248
   C      -14.03005        -5.64228         2.82598
   C      -15.27105        -5.25802         2.32681
   C      -16.48772        -5.05174         2.95195
   C      -17.71375        -5.06802         2.11987
   O      -17.77105        -5.07196         0.90868
   C      -18.83716        -5.13059         3.07735
   C      -20.17002        -5.28139         2.83456
   C      -21.06503        -5.35945         3.92683
   C      -20.55403        -5.27459         5.25380
   C      -21.44914        -5.36453         6.33686
   C      -22.78428        -5.52902         6.09291
   C      -23.30655        -5.61262         4.79618
   C      -22.45060        -5.52684         3.73289
   F      -23.64115        -5.61768         7.12919
   C      -19.16616        -5.10305         5.47406
   C      -18.32167        -5.03141         4.40121
   C      -16.87272        -4.84867         4.31740
   C      -16.08208        -4.37238         5.34284
   C      -14.77647        -3.89468         5.15416
   N      -13.73095        -3.42932         5.03701
   C      -16.51436        -4.21784         6.67095
   N      -16.78989        -4.11564         7.78220
   H      -10.76559         0.77902         3.60694
   H      -11.28642        -2.94342         0.29296
   H      -13.46886         0.29697         4.18788
   H       -6.69441        -0.40471        -0.91805
   H       -4.31459         4.12218        -0.23119
   H       -3.70402         4.47321         2.21492
   H       -3.33851         2.94335         3.02270
   H       -4.87025         3.76282         3.33916
   H       -5.28031         1.38533         3.72570
   H       -5.48197        -1.14049         2.00516
   H       -5.28456        -0.66705         5.03880
   H       -5.75813        -3.12723         3.27819
   H       -3.83301        -1.45748         6.38539
   H       -5.48277        -4.77462         9.69399
   H       -7.77348        -6.66524         6.74392
   H       -6.66470        -6.38639         9.57398
   H       -8.43612        -7.81056        10.21080
   H      -10.75938        -8.76290        10.01898
   H      -12.86124        -8.63590         8.53837
   H      -14.50974        -7.98298         6.81225
   H      -15.66969        -7.06126         4.71134
   H      -13.17721        -5.45676         2.18533
   H      -15.31861        -5.11107         1.25097
   H      -20.54035        -5.34488         1.82239
   H      -21.08288        -5.30076         7.34965
   H      -24.36903        -5.74261         4.66446
   H      -22.82890        -5.58884         2.72353
   H      -18.80695        -5.04391         6.48931
*
