# ORCA input file
# SCF done       -227.817056589458          0.000969911370
! CAM-B3LYP def2-SVP def2/J RIJCOSX Grid4 TightSCF
%maxcore 5000
%tddft
    Mode sTDDFT
    Ethresh 5.0
    maxcore 5000
end

%pal
  nprocs 6
  end
* xyz 0 1
   C       -6.28985         8.96245        -5.03063
   C       -5.63971         7.90636        -5.60888
   C       -4.83840         8.00612        -6.76666
   N       -4.17327         8.02567        -7.70159
   C       -5.66668         6.57891        -5.12982
   N       -5.63917         5.48068        -4.79606
   C       -6.25486        10.34283        -5.49204
   C       -6.97586        11.15301        -4.57999
   C       -7.12653        12.50807        -4.75143
   C       -6.53794        13.09342        -5.87661
   C       -5.81997        12.27628        -6.78387
   C       -5.66746        10.90715        -6.61079
   S       -5.17763        13.20177        -8.10650
   C       -5.87566        14.65212        -7.43577
   C       -6.55140        14.45676        -6.27808
  Br       -5.64024        16.28717        -8.32267
   C       -7.50932        10.31677        -3.48786
   O       -8.17101        10.69060        -2.54636
   C       -7.10796         8.92231        -3.82560
   C       -7.58846         7.82535        -3.19838
   C       -8.33707         7.84419        -1.95984
   C       -7.79232         8.38650        -0.83318
   S       -8.69704         8.10742         0.59338
   C       -9.91150         7.27733        -0.33133
   C       -9.60944         7.21568        -1.69917
   C      -10.57343         6.70833        -2.60179
   C      -10.33073         6.87961        -4.07921
   C      -10.71440         8.29878        -4.50792
   C      -11.76492         6.18377        -2.12288
   C      -12.81894         5.67668        -3.07214
   C      -12.56854         4.21724        -3.46205
   C      -12.01011         6.13249        -0.72844
   C      -13.15744         5.64736         0.00336
   C      -13.06384         5.92387         1.33528
   S      -11.61891         6.72566         1.80168
   C      -11.09078         6.73157         0.14863
   C      -14.29515         4.91763        -0.52320
   C      -15.55850         5.13315        -0.12335
   C      -16.68997         4.42819        -0.64664
   O      -17.92557         4.78226        -0.20588
   C      -18.86232         4.05723        -0.84743
   C      -18.20064         3.19123        -1.73349
   C      -16.81231         3.44301        -1.59063
   N      -18.67729         2.22356        -2.63369
   O      -19.87753         2.01399        -2.71883
   O      -17.84483         1.63183        -3.29638
   C      -20.20433         4.36703        -0.48113
   C      -21.33501         3.85886        -1.01476
   C      -22.66160         4.28557        -0.65100
   C      -22.87681         5.55259        -0.17825
   S      -24.51731         5.96276         0.07243
   C      -24.98820         4.37513        -0.45119
   C      -23.90604         3.55454        -0.80723
   C      -24.17394         2.22564        -1.22748
   C      -23.02948         1.27236        -1.45017
   C      -22.30764         0.97063        -0.13438
   C      -25.48997         1.78964        -1.36467
   C      -25.80583         0.43897        -1.95752
   C      -25.82166        -0.67595        -0.90652
   C      -26.56999         2.61991        -0.97797
   C      -28.00135         2.39363        -0.98480
   C      -28.69283         3.50677        -0.58181
   S      -27.71687         4.83270        -0.13459
   C      -26.29154         3.91763        -0.52723
   C      -28.70753         1.17264        -1.25358
   C      -29.96159         1.09719        -1.76030
   C      -30.63648        -0.12291        -2.02520
   C      -30.40794        -1.37779        -1.54147
   C      -29.63932        -1.89656        -0.43009
   C      -29.39077        -1.27285         0.76637
   C      -28.71495        -1.87815         1.84417
   N      -28.14843        -2.31549         2.74196
   C      -29.83020         0.02886         1.07750
   N      -30.17721         1.07898         1.38451
   C      -29.39617        -3.31200        -0.69376
   C      -30.19631        -3.71356        -1.79231
   C      -30.92998        -2.54055        -2.31029
   O      -31.74549        -2.51258        -3.20331
   C      -30.21465        -5.00597        -2.25697
   C      -29.39527        -5.94141        -1.61574
   C      -28.58530        -5.52512        -0.53220
   C      -28.57304        -4.21978        -0.05585
   S      -27.64162        -6.83857         0.10243
   C      -28.34169        -7.91606        -1.07646
   C      -29.23489        -7.32451        -1.90452
  Br      -27.82717        -9.71950        -1.10100
   H       -7.68331        13.09676        -4.03934
   H       -5.11574        10.32770        -7.33194
   H       -7.04031        15.24081        -5.72930
   H       -7.37702         6.84299        -3.60236
   H       -6.84901         8.89206        -0.76219
   H      -10.89952         6.15789        -4.66081
   H       -9.28103         6.71111        -4.30864
   H      -11.77455         8.47513        -4.34053
   H      -10.50132         8.44618        -5.56468
   H      -10.15796         9.03658        -3.93439
   H      -12.84372         6.29055        -3.97198
   H      -13.79720         5.77108        -2.59982
   H      -11.64562         4.12170        -4.02910
   H      -13.38745         3.84272        -4.07221
   H      -12.47313         3.58971        -2.57867
   H      -13.76849         5.64564         2.09454
   H      -14.09653         4.14173        -1.24534
   H      -15.78884         5.90697         0.59484
   H      -16.03954         2.94099        -2.13340
   H      -20.25293         5.09582         0.31761
   H      -21.24696         3.11998        -1.79012
   H      -22.13370         6.30824        -0.01509
   H      -22.32433         1.66808        -2.17856
   H      -23.38493         0.32828        -1.85150
   H      -21.89783         1.87252         0.31175
   H      -21.49003         0.27809        -0.31720
   H      -22.99499         0.51960         0.57867
   H      -25.08334         0.19159        -2.73603
   H      -26.77422         0.50091        -2.45565
   H      -24.81398        -0.90015        -0.56759
   H      -26.25036        -1.58613        -1.32371
   H      -26.39923        -0.38278        -0.03128
   H      -29.75454         3.57574        -0.44846
   H      -28.19746         0.25046        -1.03033
   H      -30.45689         1.99816        -2.09364
   H      -31.39942        -0.08346        -2.79740
   H      -30.84037        -5.28784        -3.08907
   H      -27.93498        -3.94605         0.76817
   H      -29.76017        -7.83996        -2.68761
*
