# ORCA input file
# SCF done       -177.837309413111          0.000625032446
! CAM-B3LYP def2-SVP def2/J RIJCOSX Grid4 TightSCF
%maxcore 5000
%tddft
    Mode sTDDFT
    Ethresh 5.0
    maxcore 5000
end

%pal
  nprocs 6
  end
* xyz 0 1
   C       -4.17114         2.26611        -0.54023
   S       -5.31100         1.02614        -0.28234
   C       -4.08030        -0.14177         0.09442
   C       -2.81109         0.47255         0.09977
   C       -2.88081         1.84872        -0.29938
   C       -1.68452         2.61570        -0.39930
   C       -1.74294         3.95848        -0.81787
   N       -1.77381         5.05788        -1.14841
   C       -0.47984         2.03831        -0.06431
   C       -0.43738         0.72652         0.42485
   C       -1.57060        -0.04012         0.51433
   C       -4.44996        -1.49941         0.29707
   C       -5.79679        -1.85401         0.56948
   C       -6.21759        -3.20321         0.86164
   N       -7.50277        -3.46332         1.09817
   C       -8.38395        -2.48283         1.06254
   C       -7.97015        -1.14332         0.79755
   N       -6.70759        -0.87268         0.56338
   C       -8.91869        -0.09152         0.77937
   N       -9.71544         0.73191         0.77378
   C       -9.74825        -2.78031         1.28827
   N      -10.85984        -2.99571         1.46814
   C       -5.28389        -4.28268         0.93727
   C       -3.98259        -3.95389         0.47213
   C       -3.57557        -2.60558         0.15094
   N       -2.34332        -2.58010        -0.35331
   S       -1.74740        -4.07093        -0.41139
   N       -3.02939        -4.83391         0.19356
   C       -5.69041        -5.52853         1.43187
   C       -4.90731        -6.54654         1.94574
   C       -5.39434        -7.71828         2.57396
   C       -4.44667        -8.44665         3.24179
   C       -3.16804        -7.86534         3.18675
   S       -3.17919        -6.46117         2.14394
   C       -1.98999        -8.13326         3.87126
   C       -1.60624        -9.17346         4.74455
   C       -0.38496        -8.98844         5.32553
   C        0.25103        -7.76447         4.98069
   S       -0.73459        -6.92916         3.78213
   C        1.42500        -7.22929         5.42666
   C        1.83129        -5.87825         5.12824
   C        0.86873        -4.85309         5.06656
   C        1.22850        -3.59202         4.67013
   C        2.57389        -3.29972         4.36749
   C        3.54675        -4.28417         4.50046
   C        3.17436        -5.55663         4.88604
   C        2.66707        -1.90638         3.98935
   C        1.38334        -1.34007         4.07714
   C        0.36230        -2.36239         4.52101
   C       -0.68834        -2.48214         3.39274
   C       -1.88414        -3.38355         3.66607
   C       -0.28727        -1.96434         5.85732
   C        0.74135        -1.64733         6.93696
   C        1.16202        -0.02775         3.75106
   C        2.23046         0.77227         3.31660
   C        3.51143         0.20131         3.25438
   C        3.73893        -1.12012         3.58408
   C        2.03582         2.14241         2.90962
   C        0.83196         2.74495         2.81121
   C        0.58568         4.07058         2.36913
   S        1.87043         5.16488         1.95820
   C        0.78904         6.41769         1.56280
   C       -0.52849         6.04297         1.72236
   C       -0.65347         4.68851         2.18302
   C       -1.96506         4.16025         2.35847
   C       -2.21652         2.83197         2.75802
   N       -2.49205         1.75994         3.06774
   C       -3.05954         4.96047         2.10537
   C       -2.91414         6.28912         1.67175
   C       -1.67747         6.82850         1.47553
   H       -4.48926         3.24621        -0.83833
   H        0.43215         2.61008        -0.15479
   H        0.51031         0.32032         0.74466
   H       -1.50709        -1.03901         0.90502
   H       -6.76186        -5.65148         1.53166
   H       -6.43947        -7.97278         2.54437
   H       -4.65152        -9.34540         3.79639
   H       -2.23690       -10.02743         4.91934
   H        0.06203        -9.67168         6.02635
   H        2.09144        -7.85209         6.00840
   H       -0.14032        -5.05643         5.38614
   H        4.58400        -4.05897         4.30118
   H        3.92048        -6.33403         4.96702
   H       -0.17353        -2.83533         2.49428
   H       -1.06005        -1.47504         3.19142
   H       -1.58042        -4.41567         3.80368
   H       -2.56104        -3.34919         2.81441
   H       -2.43847        -3.05218         4.53949
   H       -0.91905        -2.78381         6.20200
   H       -0.92087        -1.09112         5.69086
   H        1.38595        -2.50530         7.11760
   H        0.23896        -1.39303         7.86748
   H        1.36516        -0.80623         6.64296
   H        0.16832         0.38342         3.83145
   H        4.33781         0.81714         2.92831
   H        4.73401        -1.53495         3.51907
   H        2.92624         2.69763         2.63964
   H       -0.06009         2.19522         3.06460
   H        1.16466         7.36335         1.22747
   H       -4.05020         4.54910         2.23565
   H       -3.80145         6.87300         1.48298
   H       -1.55381         7.84112         1.12539
*
