# ORCA input file
# SCF done       -178.264759354671          0.000210236072
! CAM-B3LYP def2-SVP def2/J RIJCOSX Grid4 TightSCF
%maxcore 5000
%tddft
    Mode sTDDFT
    Ethresh 5.0
    maxcore 5000
end

%pal
  nprocs 6
  end
* xyz 0 1
   C       -1.18254        -0.24459         2.16804
   C       -1.08811        -0.94529         3.34303
   C       -0.37298        -2.15142         3.49331
   N        0.19377        -3.13142         3.68627
   C       -1.68296        -0.57504         4.56699
   N       -2.13128        -0.35349         5.60123
   C       -0.60096        -0.64652         0.89365
   C       -0.94966         0.31087        -0.09086
   C       -0.54262         0.20840        -1.39875
   C        0.23764        -0.89520        -1.75698
   C        0.58153        -1.84594        -0.76705
   C        0.17592        -1.74002         0.55758
   S        1.55801        -3.11918        -1.43113
   C        1.49658        -2.38321        -2.99548
   C        0.78091        -1.23809        -3.02742
   C       -1.74779         1.38673         0.52725
   O       -2.06879         2.43046         0.00252
   C       -1.92296         0.98507         1.94931
   C       -2.55236         1.73671         2.89077
   C       -3.44165         2.82773         2.61919
   C       -3.47133         3.95540         3.42998
   C       -4.29469         5.04606         3.17212
   C       -5.20259         5.06583         2.12253
   C       -5.23642         3.91439         1.29190
   C       -4.36607         2.79825         1.54381
   N       -4.57891         1.79549         0.69495
   S       -5.70383         2.24339        -0.35884
   N       -6.00297         3.70922         0.22091
   C       -6.06523         6.19903         1.87449
   C       -7.38074         6.04095         1.40661
   C       -8.20583         7.16367         1.01500
   N       -9.39417         6.94529         0.47191
   C       -9.85113         5.71009         0.33499
   C       -9.10229         4.62234         0.87740
   N       -7.91518         4.80557         1.39192
   C       -9.66511         3.32159         0.86324
   N      -10.15802         2.28850         0.80592
   C      -11.08633         5.46990        -0.29061
   N      -12.08577         5.19313        -0.78557
   C       -7.77200         8.51316         1.18347
   C       -6.46730         8.65606         1.74619
   C       -5.63495         7.52849         2.08377
   N       -4.45466         7.91661         2.56516
   S       -4.39909         9.52725         2.59692
   N       -5.86975         9.81343         1.99685
   C       -8.47402         9.66662         0.84431
   C       -9.73607         9.87443         0.30111
   C      -10.24309        11.16893         0.05972
   C      -11.50800        11.19983        -0.46566
   C      -12.04294         9.92079        -0.65828
   S      -10.91071         8.67737        -0.16441
   C      -13.29187         9.56334        -1.16604
   C      -14.34111        10.39203        -1.60214
   C      -15.43802         9.70013        -2.03658
   C      -15.30579         8.29565        -1.96565
   S      -13.72484         7.88908        -1.32252
   C      -16.26926         7.38179        -2.34080
   C      -16.20895         5.98184        -2.30191
   C      -17.26266         5.13269        -2.70470
   C      -16.86140         3.79681        -2.53562
   C      -17.50602         2.59301        -2.78016
   C      -16.80851         1.41832        -2.50187
   C      -17.16684         0.07432        -2.63891
   C      -16.08524        -0.73904        -2.21251
   C      -15.04823         0.09851        -1.80614
   C      -15.45402         1.44961        -1.97062
   C      -14.80715         2.63607        -1.72442
   C      -15.50714         3.82354        -2.00735
   C      -15.12445         5.14526        -1.87117
   C      -16.03174        -2.18145        -2.19120
   C      -17.00564        -2.99707        -2.58629
   H       -0.82110         0.95747        -2.12375
   H        0.47031        -2.48756         1.27509
   H        2.00968        -2.86197        -3.80682
   H        0.63443        -0.64402        -3.91139
   H       -2.37798         1.52698         3.93895
   H       -2.79429         4.00232         4.27090
   H       -4.23955         5.90589         3.82049
   H       -7.92423        10.57784         1.05401
   H       -9.66134        12.04644         0.28216
   H      -12.03968        12.10323        -0.70759
   H      -14.26828        11.46454        -1.58545
   H      -16.33695        10.16270        -2.40529
   H      -17.19441         7.80637        -2.71417
   H      -18.21581         5.46027        -3.07864
   H      -18.51253         2.56277        -3.17363
   H      -18.11066        -0.28276        -3.00798
   H      -14.09299        -0.21747        -1.42862
   H      -13.80225         2.67806        -1.33039
   H      -14.16813         5.46717        -1.50671
   H      -15.10453        -2.59648        -1.81674
   H      -17.94437        -2.63119        -2.96570
   H      -16.89565        -4.06657        -2.54233
*
