# ORCA input file
# SCF done       -227.262381492886          0.000608803579
! CAM-B3LYP def2-SVP def2/J RIJCOSX Grid4 TightSCF
%maxcore 5000
%tddft
    Mode sTDDFT
    Ethresh 5.0
    maxcore 5000
end

%pal
  nprocs 6
  end
* xyz 0 1
   C       -6.99594        -0.93450        -6.35603
   C       -6.33311        -0.74946        -7.54262
   C       -6.30199        -1.69777        -8.58571
   N       -6.24620        -2.42607        -9.47159
   C       -5.56577         0.38381        -7.88494
   N       -4.90535         1.25353        -8.24186
   C       -7.70288        -2.14674        -5.96507
   C       -8.13028        -2.00609        -4.62350
   C       -8.82642        -2.98667        -3.95997
   C       -9.11216        -4.16684        -4.65414
   C       -8.68246        -4.29851        -5.99599
   C       -7.98065        -3.30532        -6.66732
   S       -9.14353        -5.83416        -6.66686
   C       -9.89516        -6.27234        -5.15548
   C       -9.80729        -5.32006        -4.19710
  Br      -10.72524        -7.94591        -4.98624
   C       -7.71655        -0.68528        -4.10365
   O       -7.95699        -0.25762        -2.99561
   C       -7.04330        -0.00560        -5.23898
   C       -6.71216         1.31514        -5.32453
   C       -6.59696         2.30278        -4.29494
   C       -6.76477         3.65387        -4.66409
   C       -6.63465         4.63648        -3.72046
   C       -6.29395         4.31058        -2.39178
   C       -6.08985         2.98568        -2.02483
   C       -6.24612         1.99537        -2.97015
   C       -6.19256         5.53118        -1.63167
   C       -6.47552         6.61686        -2.48222
   C       -6.78728         6.13123        -3.87858
   C       -5.78770         6.69391        -4.90614
   C       -4.34048         6.35331        -4.57194
   C       -8.22255         6.50482        -4.29461
   C       -9.27457         5.98626        -3.32144
   C       -6.43917         7.90184        -2.00658
   C       -6.10433         8.14565        -0.66076
   C       -5.82903         7.04742         0.17346
   C       -5.87299         5.75417        -0.29708
   C       -6.05238         9.50344        -0.20197
   C       -5.63307         9.93231         1.01760
   C       -5.58196        11.28685         1.39465
   C       -5.10596        11.72847         2.60154
   C       -4.99495        13.07202         3.04201
   C       -4.44832        13.21507         4.27899
   C       -4.09563        11.99202         4.89719
   S       -4.49946        10.64747         3.84881
   C       -3.49997        11.80167         6.12414
   C       -3.07473        12.78655         7.05104
   C       -2.47721        12.28239         8.15883
   C       -2.39478        10.85821         8.19022
   S       -3.12302        10.20055         6.72637
   C       -1.88355        10.14431         9.22940
   C       -1.69927         8.72199         9.35421
   C       -1.57347         8.10352        10.61156
   N       -1.80633         8.62989        11.87301
   C       -2.83255         9.62264        12.10152
   C       -4.02440         9.04667        12.86521
   C       -1.36807         7.71441        12.80776
   C       -0.95229         6.53424        12.13930
   C       -1.10388         6.78115        10.73146
   C       -0.87033         6.00352         9.60693
   C       -1.09775         6.57128         8.36553
   C       -1.48451         7.89568         8.24366
   C       -0.48574         5.43499        12.83621
   C       -0.39467         5.51995        14.21738
   C       -0.69587         6.69897        14.86843
   C       -1.15778         7.84341        14.19751
   C       -1.26516         9.10538        14.86984
   C       -0.63542         9.44995        16.02335
   C       -0.70723        10.72461        16.62992
   C       -1.06503        11.94888        16.12816
   C       -1.25063        12.48017        14.80133
   C       -0.65265        12.05491        13.63558
   C       -0.89302        12.61110        12.36723
   N       -1.09440        12.96219        11.29049
   C        0.30941        11.02798        13.56923
   N        1.11780        10.22202        13.44764
   C       -2.00878        13.72326        14.92549
   C       -2.09317        14.06845        16.29657
   C       -1.44405        13.00998        17.09824
   O       -1.28716        12.98697        18.29828
   C       -2.70464        15.21732        16.73299
   C       -3.27181        16.06075        15.77059
   C       -3.19674        15.69911        14.40541
   C       -2.56905        14.54070        13.96306
   S       -3.97075        16.87728        13.38870
   C       -4.37287        17.83065        14.79241
   C       -3.95344        17.29404        15.96250
  Br       -5.31169        19.44094        14.57820
   H       -9.13874        -2.84807        -2.93671
   H       -7.68045        -3.45107        -7.69140
   H      -10.21562        -5.42391        -3.20838
   H       -6.53083         1.70141        -6.32181
   H       -7.01372         3.89435        -5.68802
   H       -5.80649         2.73341        -1.01433
   H       -6.06408         0.97012        -2.69680
   H       -5.90442         7.77891        -4.94787
   H       -6.03528         6.29375        -5.89136
   H       -4.06684         6.75047        -3.59679
   H       -3.67468         6.78149        -5.31752
   H       -4.19191         5.27591        -4.55804
   H       -8.41551         6.09700        -5.28912
   H       -8.29456         7.59258        -4.36024
   H       -9.23718         4.90108        -3.25523
   H      -10.26806         6.27624        -3.65561
   H       -9.11298         6.39564        -2.32664
   H       -6.65550         8.73877        -2.65567
   H       -5.58276         7.21899         1.20949
   H       -5.66049         4.92534         0.36161
   H       -6.36100        10.25300        -0.92133
   H       -5.29403         9.22136         1.75901
   H       -5.92363        12.03305         0.68912
   H       -5.31923        13.88901         2.42148
   H       -4.28615        14.16112         4.76381
   H       -3.22078        13.83545         6.86481
   H       -2.08307        12.86881         8.96976
   H       -1.50623        10.74345        10.04953
   H       -3.18416         9.95903        11.12434
   H       -2.42375        10.49868        12.61799
   H       -4.44747         8.21250        12.30964
   H       -4.78833         9.81218        12.97661
   H       -3.74287         8.69031        13.85252
   H       -0.51717         4.98863         9.70101
   H       -0.93399         5.98909         7.47149
   H       -1.56329         8.32340         7.25719
   H       -0.19489         4.53738        12.31316
   H       -0.05381         4.66934        14.78766
   H       -0.58218         6.74382        15.94016
   H       -1.87146         9.86393        14.40334
   H       -0.06531         8.70770        16.56371
   H       -0.49785        10.74838        17.69619
   H       -2.74322        15.46109        17.78295
   H       -2.53975        14.30774        12.91153
   H       -4.11668        17.74756        16.92301
*
