# ORCA input file
# SCF done       -189.698205069845          0.000382141433
! CAM-B3LYP def2-SVP def2/J RIJCOSX Grid4 TightSCF
%maxcore 5000
%tddft
    Mode sTDDFT
    Ethresh 5.0
    maxcore 5000
end

%pal
  nprocs 6
  end
* xyz 0 1
   C       -1.05946         1.82552         4.28718
   C        0.24703         1.75088         3.87465
   C        1.31924         1.38458         4.71218
   N        2.22762         1.08822         5.34926
   C        0.69479         2.07508         2.57685
   N        1.14189         2.35399         1.55663
   C       -1.53838         1.62667         5.65047
   C       -2.91963         1.93502         5.69300
   C       -3.66126         1.85029         6.84541
   C       -3.00689         1.44883         8.01507
   C       -1.62752         1.14037         7.96220
   C       -0.87785         1.22107         6.79473
   S       -1.02073         0.65783         9.51798
   C       -2.60677         0.87732        10.20816
   C       -3.54383         1.28922         9.32232
  Br       -2.87668         0.54142        12.03386
   C       -3.38486         2.30923         4.34075
   O       -4.53566         2.51303         4.01493
   C       -2.18537         2.22587         3.47417
   C       -2.21572         2.30719         2.10956
   C       -3.25307         2.91624         1.35848
   C       -3.59260         2.43331         0.07463
   C       -4.69909         2.97862        -0.66284
   N       -5.04371         2.45695        -1.83870
   C       -4.35719         1.44425        -2.33101
   C       -3.24924         0.91394        -1.60330
   N       -2.90164         1.40047        -0.43487
   C       -2.50911        -0.16728        -2.14774
   N       -1.94144        -1.04436        -2.61647
   C       -4.73363         0.89951        -3.58018
   N       -5.01990         0.44035        -4.59065
   C       -5.48207         4.06513        -0.18006
   C       -5.05820         4.62623         1.05189
   C       -3.96348         4.05760         1.80156
   N       -3.69054         4.76905         2.89102
   S       -4.72752         5.98842         2.99841
   N       -5.55980         5.70349         1.65047
   C       -6.59638         4.51470        -0.90599
   S       -7.06513         3.72413        -2.40698
   C       -8.40281         4.79004        -2.55112
   C       -8.46851         5.72811        -1.48609
   C       -7.45806         5.56699        -0.56759
   C       -9.64007         6.61407        -1.67534
   O      -10.01785         7.53128        -0.98886
   C      -10.25412         6.09865        -2.93322
   C       -9.47816         5.01511        -3.41573
   S      -10.13521         4.35359        -4.85145
   C      -11.46378         5.52255        -4.81591
   C      -11.35090         6.38327        -3.70675
   C      -12.42782         5.45752        -5.81327
   C      -13.54455         6.26196        -5.98592
   C      -14.50225         6.10537        -7.00697
   C      -15.52324         7.01842        -6.97087
   C      -15.41299         7.94377        -5.92291
   S      -13.97983         7.61950        -4.97679
   C      -16.25936         9.00180        -5.60284
   C      -17.45796         9.38114        -6.23339
   C      -18.04848        10.47808        -5.67115
   C      -17.34669        11.02536        -4.57387
   S      -15.90174        10.07318        -4.27837
   C      -17.73241        12.13783        -3.85836
   C      -17.09115        12.76478        -2.77930
   C      -17.58061        13.92406        -2.14192
   C      -16.68964        14.29288        -1.12041
   C      -16.70054        15.34582        -0.21801
   C      -15.63974        15.43821         0.68250
   C      -15.35768        16.36287         1.69019
   C      -14.13708        16.00201         2.32208
   C      -13.65775        14.84887         1.70833
   C      -14.56111        14.46249         0.67971
   C      -14.54289        13.41640        -0.20849
   C      -15.60913        13.32024        -1.12372
   C      -15.86521        12.40441        -2.12860
   C      -13.48111        16.68896         3.40896
   C      -13.91863        17.79907         3.99729
   H       -4.71348         2.08827         6.84636
   H        0.16921         0.96778         6.80251
   H       -4.57181         1.47214         9.57709
   H       -1.43371         1.83701         1.52633
   H       -7.30975         6.15420         0.32023
   H      -12.05316         7.16639        -3.49175
   H      -12.30178         4.67503        -6.55075
   H      -14.41764         5.32301        -7.74008
   H      -16.33627         7.04101        -7.67374
   H      -17.85646         8.84401        -7.07484
   H      -18.96989        10.91181        -6.01812
   H      -18.65838        12.59747        -4.18459
   H      -18.48681        14.43982        -2.40199
   H      -17.50070        16.07237        -0.21225
   H      -15.96690        17.21031         1.94496
   H      -12.75216        14.32933         1.96331
   H      -13.74472        12.68814        -0.21729
   H      -15.24503        11.56436        -2.37731
   H      -12.55812        16.23307         3.74450
   H      -14.82957        18.28858         3.69804
   H      -13.37554        18.25860         4.80451
*
