# ORCA input file
# SCF done       -173.012490209312          0.000456865151
! CAM-B3LYP def2-SVP def2/J RIJCOSX Grid4 TightSCF
%maxcore 5000
%tddft
    Mode sTDDFT
    Ethresh 5.0
    maxcore 5000
end

%pal
  nprocs 6
  end
* xyz 0 1
   C      -10.45984        -0.58428        -3.34678
   C      -10.97198        -1.63081        -2.62521
   C      -11.44876        -2.82969        -3.19405
   N      -11.85238        -3.82406        -3.60101
   C      -11.09238        -1.63893        -1.22046
   N      -11.20915        -1.68559        -0.07941
   C      -10.32508        -0.53129        -4.79992
   C       -9.76457         0.72037        -5.16729
   C       -9.51945         1.06764        -6.47445
   C       -9.84061         0.13698        -7.46802
   C      -10.39778        -1.10924        -7.09238
   C      -10.64622        -1.46021        -5.77030
   S      -10.72009        -2.10770        -8.47514
   C      -10.11178        -0.85666        -9.52673
   C       -9.68740         0.25355        -8.87618
  Br      -10.09937        -1.13310       -11.38097
   C       -9.52187         1.50316        -3.95167
   O       -9.05738         2.63752        -3.87170
   C       -9.95701         0.66889        -2.82971
   C       -9.86480         1.09719        -1.52865
   N       -9.36251         2.30193        -1.23476
   C       -9.19334         2.82022         0.01142
   S       -9.51769         1.85193         1.42031
   C       -8.98150         3.15989         2.41977
   N       -9.00759         2.98083         3.81136
   O       -8.62281         3.90309         4.50390
   O       -9.41344         1.90775         4.21773
   C       -8.57847         4.25783         1.71128
   C       -8.70566         4.09541         0.31575
   C       -8.34189         5.15912        -0.58773
   C       -8.72957         5.35414        -1.86186
   C       -8.27985         6.48429        -2.62286
   C       -8.60879         6.75438        -3.89664
   C       -9.47622         5.88441        -4.75013
   C       -8.06571         7.99229        -4.56915
   N       -7.13561         7.65801        -5.62371
   C       -7.50927         7.54430        -6.92289
   C       -6.81365         6.88499        -7.87142
   C       -7.16764         6.86284        -9.25168
   S       -8.56653         7.71280        -9.87580
   C       -8.23947         7.20597       -11.50309
   C       -7.08678         6.43089       -11.54760
   C       -6.51776         6.21537       -10.26495
   C       -6.39762         5.92436       -12.71618
   O       -5.80099         4.87461       -12.77805
   C       -6.25289         6.89048       -13.93736
   F       -6.81614         6.41216       -15.05606
   F       -6.74607         8.12259       -13.74480
   F       -4.94749         7.05060       -14.20160
   C       -9.18809         7.46029       -12.53870
   C      -10.09139         8.51517       -12.59618
   C      -10.85080         8.39237       -13.79142
   C      -11.84616         9.17836       -14.33091
   C      -12.40401         8.77308       -15.55146
   C      -13.40215         9.33772       -16.34383
   C      -13.59812         8.52358       -17.49605
   C      -12.71892         7.45374       -17.41698
   C      -11.95311         7.57021       -16.21770
   C      -10.96243         6.78441       -15.68377
   C      -10.39764         7.19312       -14.46116
   C       -9.39131         6.63446       -13.68541
   C      -14.53570         8.74703       -18.57124
   C      -15.37438         9.77480       -18.66726
   H       -9.09233         2.02595        -6.72565
   H      -11.07178        -2.42146        -5.53586
   H       -9.28232         1.11852        -9.36882
   H      -10.19678         0.48667        -0.69901
   H       -9.03649         2.84436        -2.04935
   H       -8.21921         5.15235         2.18752
   H       -7.70239         5.90640        -0.13416
   H       -9.42785         4.69396        -2.35028
   H       -7.62837         7.17243        -2.09799
   H       -9.29662         4.82952        -4.56080
   H       -9.29196         6.08163        -5.80428
   H      -10.52777         6.09340        -4.54899
   H       -7.55176         8.62516        -3.83867
   H       -8.88466         8.56667        -5.01151
   H       -6.34951         7.09154        -5.33660
   H       -8.40405         8.09145        -7.19257
   H       -5.91881         6.33863        -7.60745
   H       -5.62243         5.63691       -10.12750
   H      -10.17999         9.30342       -11.87151
   H      -12.18898        10.07648       -13.83639
   H      -13.93780        10.24249       -16.12157
   H      -12.62223         6.66108       -18.13650
   H      -10.61243         5.88902       -16.17716
   H       -8.87832         5.71022       -13.88210
   H      -14.52355         7.99246       -19.34802
   H      -15.42141        10.55088       -17.92277
   H      -16.04573         9.87660       -19.50205
*
