# ORCA input file
# SCF done       -213.797130888202          0.000770646272
! CAM-B3LYP def2-SVP def2/J RIJCOSX Grid4 TightSCF
%maxcore 5000
%tddft
    Mode sTDDFT
    Ethresh 5.0
    maxcore 5000
end

%pal
  nprocs 6
  end
* xyz 0 1
   C      -16.78618         6.34685        -4.37592
   C      -17.96032         5.68387        -4.12685
   C      -19.24079         6.23192        -4.34102
   N      -20.30701         6.62816        -4.49646
   C      -18.02512         4.36420        -3.63663
   N      -18.11807         3.29003        -3.24172
   C      -16.66051         7.70635        -4.89622
   C      -15.28325         8.01686        -5.04804
   C      -14.82963         9.24196        -5.47557
   C      -15.79302        10.20683        -5.78783
   C      -17.16573         9.88757        -5.65502
   C      -17.61912         8.65059        -5.20817
   S      -18.17736        11.22784        -6.09848
   C      -16.76200        12.18656        -6.44788
   C      -15.59147        11.53781        -6.24432
  Br      -16.96865        13.94985        -7.05171
   C      -14.49345         6.85434        -4.64623
   O      -13.27042         6.74084        -4.65858
   C      -15.44611         5.83989        -4.18482
   C      -15.01556         4.66755        -3.61190
   N      -13.70343         4.41450        -3.51921
   C      -13.10230         3.35271        -2.92613
   S      -14.03066         2.01285        -2.32084
   C      -12.55517         1.20868        -1.89781
   N      -12.64278        -0.05234        -1.29563
   O      -11.60155        -0.61401        -1.00885
   O      -13.76235        -0.49360        -1.10401
   C      -11.43185         1.92710        -2.20991
   C      -11.71997         3.17786        -2.78810
   C      -10.67503         4.09269        -3.19399
   C      -10.77389         5.43109        -3.27055
   C       -9.75025         6.32866        -3.76765
   C       -8.71336         5.83150        -4.57587
   C       -7.73153         6.63231        -5.11332
   C       -7.74100         8.00371        -4.88141
   C       -8.75443         8.52447        -4.11267
   C       -9.75357         7.71450        -3.54498
   N      -10.59343         8.51485        -2.78114
   C      -11.76487         8.14333        -2.03392
   C      -10.22481         9.83512        -2.83262
   O      -10.77259        10.73068        -2.23618
   C       -9.02392         9.95238        -3.75778
   C       -9.41839        10.80049        -4.99081
   C      -10.47590        10.03680        -5.78653
   O      -11.60276         9.76470        -5.43528
   N       -9.92543         9.68338        -6.98136
   C      -10.59571         8.86392        -7.95273
   C       -8.64256        10.20106        -7.12416
   C       -7.77679        10.08317        -8.18627
   C       -6.52128        10.71306        -8.11031
   C       -6.19704        11.44195        -6.95679
   C       -7.07394        11.54528        -5.89076
   C       -8.30115        10.92264        -5.97330
   C       -5.61660        10.57125        -9.22005
   C       -4.40383        11.16562        -9.35598
   C       -3.55003        10.96560       -10.45726
   C       -2.32570        11.56740       -10.59599
   C       -1.39798        11.39396       -11.65270
   C       -0.25078        12.11550       -11.51775
   C       -0.20443        12.90921       -10.35103
   S       -1.67436        12.70258        -9.42144
   C        0.80804        13.75174        -9.93425
   C        2.04976        13.99523       -10.56277
   C        2.83686        14.88493        -9.89884
   C        2.26796        15.40643        -8.70869
   S        0.67721        14.69804        -8.46930
   C        2.86356        16.31989        -7.87892
   C        2.35765        16.89585        -6.69386
   C        1.13167        16.70723        -6.05354
   C        1.09509        17.52476        -4.89479
   C        0.12473        17.70753        -3.93603
   C        0.39799        18.60782        -2.89251
   C       -0.35115        19.00740        -1.79705
   C        0.39866        19.95802        -1.03302
   C        1.61623        20.14492        -1.65948
   C        1.66210        19.32085        -2.82887
   C        2.62957        19.14307        -3.77920
   C        2.35818        18.23872        -4.83026
   C        3.10847        17.84988        -5.92029
   C       -0.09836        20.57270         0.17547
   C        0.55550        21.46419         0.91524
   H      -13.77277         9.45165        -5.54650
   H      -18.67523         8.46223        -5.11046
   H      -14.62189        11.97315        -6.40240
   H      -15.69644         3.93577        -3.19653
   H      -13.10517         5.13597        -3.96292
   H      -10.44007         1.56434        -2.00824
   H       -9.73272         3.60518        -3.40171
   H      -11.67847         5.90432        -2.93663
   H       -8.69982         4.77675        -4.80009
   H       -6.95529         6.19707        -5.72368
   H       -6.97575         8.64063        -5.29674
   H      -11.53787         7.35701        -1.31206
   H      -12.56401         7.83425        -2.70908
   H      -12.08777         9.03936        -1.50140
   H       -8.18770        10.43935        -3.24992
   H       -9.81031        11.75721        -4.63489
   H      -11.54914         8.55818        -7.52324
   H       -9.99857         7.97702        -8.17323
   H      -10.77260         9.42045        -8.87572
   H       -8.04474         9.52163        -9.06810
   H       -5.23765        11.92800        -6.88809
   H       -6.79821        12.10475        -5.00938
   H       -5.95460         9.92200       -10.01873
   H       -4.03747        11.83807        -8.59215
   H       -3.86637        10.29051       -11.24157
   H       -1.60974        10.73640       -12.47746
   H        0.55899        12.10085       -12.22525
   H        2.32784        13.50749       -11.47973
   H        3.81543        15.19028       -10.22613
   H        3.85366        16.64503        -8.17624
   H        0.33536        16.06125        -6.36842
   H       -0.81802        17.18085        -3.97742
   H       -1.34067        18.66756        -1.54673
   H        2.41000        20.79408        -1.34118
   H        3.57332        19.66906        -3.74075
   H        4.09690        18.19235        -6.17115
   H       -1.09076        20.25744         0.47417
   H        1.54250        21.80784         0.65723
   H        0.12276        21.88206         1.80754
*
