# ORCA input file
# SCF done       -224.857415870519          0.000731256867
! CAM-B3LYP def2-SVP def2/J RIJCOSX Grid4 TightSCF
%maxcore 5000
%tddft
    Mode sTDDFT
    Ethresh 5.0
    maxcore 5000
end

%pal
  nprocs 6
  end
* xyz 0 1
   C       -4.92407        -3.52017       -10.36272
   O       -4.13746        -4.44748       -10.36719
   C       -5.67925        -3.01366       -11.53478
   C       -6.48774        -1.93509       -11.13900
   C       -7.28074        -1.29525       -12.07875
   C       -7.25402        -1.74168       -13.39283
   C       -6.44882        -2.80984       -13.75811
   C       -5.64523        -3.46679       -12.83595
  Br       -6.44330        -3.38571       -15.57114
   C       -6.29385        -1.70599        -9.70459
   C       -6.93962        -0.73745        -8.96989
   C       -7.87268         0.17038        -9.50684
   N       -8.64077         0.93976        -9.87903
   C       -6.77970        -0.50485        -7.58986
   N       -6.71650        -0.24290        -6.47236
   C       -5.33126        -2.66590        -9.23633
   C       -4.83243        -2.77507        -7.94967
   C       -3.88826        -3.70322        -7.53432
   C       -3.38770        -3.74127        -6.24398
   C       -2.40319        -4.62301        -5.74657
   C       -2.06759        -4.40684        -4.44055
   C       -2.77755        -3.34602        -3.84362
   S       -3.89562        -2.63658        -4.99003
   C       -2.65683        -2.84322        -2.55965
   C       -1.75562        -3.24091        -1.54361
   C       -1.85444        -2.50382        -0.40603
   C       -2.84681        -1.48410        -0.44466
   S       -3.66083        -1.53249        -2.00632
   C       -3.06444        -0.56043         0.53736
   C       -4.02490         0.49865         0.56993
   C       -3.77501         1.60261         1.41219
   C       -4.63791         2.66771         1.41763
   C       -5.78099         2.65594         0.59272
   C       -6.07048         1.55112        -0.19791
   C       -5.19616         0.48784        -0.20583
   C       -6.44920         3.92902         0.70569
   C       -5.70906         4.74674         1.57686
   C       -4.55202         3.97356         2.17687
   C       -4.87276         3.78396         3.67840
   C       -3.92373         2.87510         4.44829
   C       -3.20532         4.68033         1.96805
   C       -2.93969         4.99869         0.50096
   C       -6.08429         6.04852         1.80168
   C       -7.22125         6.55974         1.15993
   C       -7.97831         5.71390         0.33799
   C       -7.59883         4.41106         0.09442
   C       -7.63197         7.94201         1.29325
   C       -6.82548         8.96549         1.61305
   C       -7.21830        10.35993         1.64906
   C       -6.23221        11.34038         1.46731
   C       -6.58948        12.66528         1.42018
   C       -7.93040        13.04933         1.58760
   C       -8.90911        12.09134         1.80714
   C       -8.54731        10.75895         1.82873
   C       -8.01500        14.48982         1.46914
   C       -6.72829        14.99439         1.21585
   C       -5.71449        13.87379         1.18231
   C       -4.66274        14.03484         2.29540
   C       -5.28235        14.12272         3.68480
   C       -5.01025        13.79266        -0.18464
   C       -5.98641        13.63100        -1.34366
   C       -6.52388        16.33877         1.02707
   C       -7.61211        17.22137         1.08778
   C       -8.88330        16.70392         1.36942
   C       -9.09681        15.35273         1.55479
   C       -7.48229        18.64514         0.85827
   C       -6.41618        19.26859         0.33179
   C       -6.30005        20.68468         0.05171
   C       -5.21834        21.11893        -0.72982
   C       -5.07788        22.45050        -1.04112
   C       -6.04148        23.37498        -0.60636
   C       -7.10720        22.96504         0.18126
   C       -7.22364        21.63049         0.51097
   C       -5.70274        24.67957        -1.13226
   C       -4.52835        24.56628        -1.89480
   C       -4.02536        23.13447        -1.89340
   C       -2.63070        23.12898        -1.23368
   C       -1.96906        21.76675        -1.07004
   C       -4.06037        22.48600        -3.29269
   C       -3.12211        23.07920        -4.33580
   C       -3.96551        25.68426        -2.46482
   C       -4.59351        26.92847        -2.32997
   C       -5.77231        27.01643        -1.58374
   C       -6.32800        25.90712        -0.97788
   C       -4.05787        28.14071        -2.93421
   C       -3.06204        28.22115        -3.80964
   H       -7.91364        -0.46345       -11.81727
   H       -7.86478        -1.25357       -14.13686
   H       -5.01587        -4.29738       -13.11575
   H       -5.19137        -2.07681        -7.20320
   H       -3.50790        -4.42223        -8.24509
   H       -1.96885        -5.38396        -6.37015
   H       -1.33471        -4.97965        -3.90100
   H       -1.05366        -4.04210        -1.68885
   H       -1.24347        -2.65073         0.46735
   H       -2.38120        -0.60414         1.37806
   H       -2.87073         1.61183         2.00298
   H       -6.95944         1.52979        -0.80918
   H       -5.43085        -0.37855        -0.80283
   H       -5.88515         3.37841         3.75529
   H       -4.87867         4.77221         4.14387
   H       -3.96093         1.86013         4.06188
   H       -4.22118         2.84862         5.49450
   H       -2.89988         3.23662         4.39945
   H       -2.40322         4.04401         2.34444
   H       -3.19928         5.60530         2.54860
   H       -2.93370         4.08787        -0.09395
   H       -1.97427         5.48772         0.39155
   H       -3.70781         5.65909         0.10490
   H       -5.51795         6.67858         2.47095
   H       -8.86527         6.10889        -0.13647
   H       -8.18050         3.78143        -0.56171
   H       -8.66189         8.14246         1.02878
   H       -5.77313         8.77886         1.78640
   H       -5.20215        11.03873         1.33648
   H       -9.93968        12.38005         1.95191
   H       -9.30376        10.00885         2.00400
   H       -4.08203        14.93905         2.10026
   H       -3.97899        13.18382         2.25608
   H       -5.95117        14.97785         3.75244
   H       -4.50384        14.23369         4.43634
   H       -5.85232        13.22353         3.90830
   H       -4.31861        12.94732        -0.17309
   H       -4.42266        14.70177        -0.33000
   H       -6.56971        12.71993        -1.22986
   H       -5.44477        13.57755        -2.28539
   H       -6.67249        14.47394        -1.38757
   H       -5.53027        16.71677         0.84024
   H       -9.72024        17.38588         1.42706
   H      -10.08865        14.97738         1.75925
   H       -8.36415        19.22138         1.10526
   H       -5.55543        18.68244         0.03597
   H       -4.51740        20.38351        -1.09718
   H       -7.84009        23.67912         0.52703
   H       -8.04652        21.31364         1.13307
   H       -2.73475        23.58975        -0.24733
   H       -1.97554        23.77367        -1.82225
   H       -2.53573        21.13888        -0.38856
   H       -0.97227        21.89897        -0.65331
   H       -1.86981        21.25568        -2.02414
   H       -5.08722        22.56089        -3.66139
   H       -3.83662        21.42389        -3.17777
   H       -3.40485        24.09966        -4.57750
   H       -3.18228        22.49037        -5.24928
   H       -2.08993        23.06733        -3.99531
   H       -3.03289        25.61992        -3.00157
   H       -6.25290        27.97895        -1.47632
   H       -7.22967        25.99633        -0.39010
   H       -4.55805        29.05269        -2.63031
   H       -2.53241        27.35765        -4.17437
   H       -2.74242        29.16891        -4.20761
*
