# ORCA input file
# SCF done       -188.970005413887          0.000987934457
! CAM-B3LYP def2-SVP def2/J RIJCOSX Grid4 TightSCF
%maxcore 5000
%tddft
    Mode sTDDFT
    Ethresh 5.0
    maxcore 5000
end

%pal
  nprocs 6
  end
* xyz 0 1
   C       -4.29421        -0.41727         1.09020
   C       -4.36863        -0.78773        -0.24612
   C       -3.87869        -2.06386        -0.73201
   N       -3.90462        -2.30560        -2.04151
   C       -4.41621        -1.41893        -2.87107
   C       -4.96958        -0.19482        -2.37860
   N       -4.92409         0.09455        -1.10579
   C       -5.56864         0.71703        -3.28606
   N       -6.04293         1.41896        -4.05664
   C       -4.42681        -1.70698        -4.25539
   N       -4.46648        -1.92320        -5.38096
   C       -3.32954        -3.03536         0.15984
   C       -3.22978        -2.60186         1.50857
   C       -3.70949        -1.31982         1.96885
   N       -3.50845        -1.15773         3.28129
   S       -2.79407        -2.46290         3.87148
   N       -2.70217        -3.31135         2.50126
   C       -2.85896        -4.33262        -0.16240
   S       -1.97374        -5.20037         1.06693
   C       -1.68352        -6.60741         0.04744
   C       -2.30251        -6.39314        -1.18833
   C       -2.94605        -5.13554        -1.32295
   C       -3.51446        -4.98864        -2.60833
   C       -3.27066        -6.05469        -3.41944
   C       -3.64491        -6.21091        -4.83071
   O       -3.35464        -7.16826        -5.50611
   O       -4.32087        -5.14374        -5.25843
   C       -4.68321        -5.10853        -6.63264
   S       -2.36073        -7.31865        -2.64765
   C       -0.87912        -7.60623         0.58325
   C       -0.61698        -8.89309         0.13724
   C       -1.25626        -9.70238        -0.81824
   C       -0.72231       -10.95799        -0.93276
   C        0.37348       -11.18974        -0.08410
   S        0.68887        -9.78559         0.89502
   C        1.15327       -12.34157         0.00412
   C        0.99191       -13.55199        -0.69057
   C        1.94102       -14.48903        -0.38595
   C        2.90245       -14.05791         0.55239
   S        2.54216       -12.42019         1.05359
   C        3.97592       -14.81537         0.98609
   C        4.99573       -14.44730         1.85988
   C        5.21688       -13.24220         2.54149
   C        6.37831       -13.26558         3.28384
   C        7.08205       -14.49491         3.19823
   S        6.28048       -15.61963         2.19117
   C        8.25311       -14.40032         3.96311
   C        8.30761       -13.10624         4.54426
   C        7.12574       -12.36564         4.15396
   C        6.76524       -11.10540         4.53400
   C        7.54234       -10.34062         5.43080
   N        8.15647        -9.72274         6.17563
   C        5.57725       -10.49798         4.07703
   N        4.60982       -10.00730         3.70421
   C        9.45513       -12.90181         5.29377
   C       10.28128       -14.02047         5.30791
   S        9.60440       -15.36054         4.38342
   C       11.53532       -14.18824         5.95046
   C       12.25234       -13.14283         6.59249
   C       13.50832       -13.40632         7.26139
   N       14.15820       -12.40294         7.89236
   C       13.65629       -11.19913         7.85202
   C       12.44202       -10.92542         7.13538
   N       11.77757       -11.89122         6.54630
   C       11.96674        -9.59444         7.04211
   N       11.63041        -8.50089         6.98043
   C       14.33027       -10.14243         8.51840
   N       14.84867        -9.26676         9.04334
   C       14.08768       -14.66992         7.28517
   C       13.41885       -15.69508         6.62940
   C       12.15732       -15.45534         5.96677
   N       11.67730       -16.56154         5.39904
   S       12.70162       -17.77384         5.66826
   N       13.79949       -16.97396         6.51243
   H       -4.66986         0.53742         1.41412
   H       -4.05996        -4.13076        -2.94305
   H       -4.81700        -4.05776        -6.87605
   H       -5.61241        -5.65944        -6.78704
   H       -3.89662        -5.55609        -7.24178
   H       -0.37032        -7.32132         1.49665
   H       -2.11614        -9.37204        -1.36769
   H       -1.09370       -11.70600        -1.60915
   H        0.19067       -13.71048        -1.38895
   H        1.97909       -15.47372        -0.81685
   H        4.03850       -15.81501         0.57474
   H        4.55225       -12.40158         2.47880
   H        9.71272       -11.99574         5.81026
   H       15.02217       -14.83088         7.79385
*
