# ORCA input file
# SCF done       -232.854784191809          0.000485737500
! CAM-B3LYP def2-SVP def2/J RIJCOSX Grid4 TightSCF
%maxcore 5000
%tddft
    Mode sTDDFT
    Ethresh 5.0
    maxcore 5000
end

%pal
  nprocs 6
  end
* xyz 0 1
   C       -1.78386         1.16009        -0.97360
   O       -1.83128         2.21798        -1.56130
   C       -0.58416         0.30973        -0.78764
   C       -0.92985        -0.84352        -0.06164
   C        0.03104        -1.79227         0.24656
   C        1.33173        -1.56841        -0.18148
   C        1.68908        -0.43151        -0.90388
   C        0.71587         0.52141        -1.21146
   F        1.05727         1.60580        -1.89990
   F        2.95224        -0.25412        -1.29795
   F        2.27320        -2.46881         0.10706
   C       -2.36088        -0.79261         0.24480
   C       -3.05639        -1.77404         0.90187
   C       -2.47894        -2.96672         1.38906
   N       -2.07707        -3.95679         1.80740
   C       -4.43982        -1.76179         1.18329
   N       -5.55420        -1.84318         1.44858
   C       -2.87845         0.45025        -0.29211
   C       -4.16520         0.90214        -0.15405
   C       -4.78380         2.07316        -0.62772
   C       -6.10925         2.36069        -0.33481
   C       -6.57376         3.55742        -0.89125
   C       -7.86267         4.13921        -0.76581
   C       -8.85971         3.55513         0.10298
   C       -8.67961         3.01582         1.34684
   C       -9.87816         2.52870         1.90797
   C      -10.97522         2.67656         1.10692
   S      -10.53316         3.45769        -0.37204
   C      -12.37845         2.27340         1.37341
  Cl       -9.93578         1.80684         3.47011
   C       -8.09721         5.28442        -1.51020
   C       -7.10139         5.89361        -2.32247
   C       -5.79513         5.35981        -2.38644
   C       -5.57015         4.18073        -1.68448
   S       -4.06536         3.30967        -1.63827
   C       -4.75583         6.02651        -3.14095
   C       -4.53573         7.37172        -3.25775
   C       -3.43335         7.67023        -4.08450
   C       -2.80475         6.57610        -4.60718
   S       -3.58093         5.12934        -4.06337
   C       -1.62258         6.52045        -5.50294
  Cl       -2.93499         9.28998        -4.39923
   C       -7.60362         7.01620        -3.00462
   C       -8.90911         7.31533        -2.70440
   S       -9.59262         6.18310        -1.55773
   C       -9.69324         8.40350        -3.19603
   C       -9.24708         9.33988        -4.16016
   C      -10.07499        10.42810        -4.59413
   N       -9.57192        11.32672        -5.46837
   C       -8.37674        11.17483        -5.95924
   C       -7.57645        10.05066        -5.58117
   N       -8.01582         9.19922        -4.69810
   C       -6.21809         9.82313        -6.14879
   C       -7.88150        12.21023        -6.90932
   C      -11.39154        10.61826        -4.11216
   C      -11.84224         9.68786        -3.15828
   C      -11.00081         8.60299        -2.71513
   N      -11.61837         7.83089        -1.81782
   S      -13.09467         8.39520        -1.56298
   N      -13.04088         9.64162        -2.56485
   C      -12.22790        11.70939        -4.56733
   C      -13.31635        12.16464        -3.88362
   C      -14.09087        13.25192        -4.38675
   C      -15.21918        13.71132        -3.72824
   C      -15.99762        14.76679        -4.22904
   N      -16.64209        15.62393        -4.64132
   C      -15.65340        13.13572        -2.52348
   N      -16.00670        12.66415        -1.53687
   C      -13.63418        13.83380        -5.61393
   C      -12.52357        13.33714        -6.21264
   O      -11.84209        12.27541        -5.73214
   C      -11.96096        13.80733        -7.46521
   O      -11.33033        12.90682        -8.22451
   C      -10.92762        13.49931        -9.36589
   C      -11.29990        14.84221        -9.34891
   C      -11.94940        15.04551        -8.09618
   C      -12.37713        16.32894        -7.47327
   F      -12.33669        16.27955        -6.13304
   F      -11.58428        17.35742        -7.81282
   F      -13.63113        16.69509        -7.80314
   O      -11.05390        15.66716       -10.37706
   C      -11.89570        16.78954       -10.59966
   C      -10.22793        12.70487       -10.33814
   C       -9.70686        13.17207       -11.46974
   H       -0.18310        -2.68996         0.80210
   H       -4.83882         0.27565         0.41828
   H       -6.72030         1.69509         0.24825
   H       -7.74153         3.00788         1.87025
   H      -12.42071         1.66003         2.26994
   H      -12.78056         1.70856         0.53412
   H      -13.00799         3.15127         1.51924
   H       -5.10017         8.12425        -2.73959
   H       -1.27945         7.52756        -5.72673
   H       -1.87031         6.01461        -6.43548
   H       -0.81316         5.96694        -5.02832
   H       -7.05043         7.59145        -3.72053
   H       -5.54850        10.63168        -5.85810
   H       -6.25856         9.79788        -7.23624
   H       -5.81611         8.88377        -5.77992
   H       -6.96300        12.66042        -6.53622
   H       -8.63894        12.97863        -7.03034
   H       -7.66611        11.76280        -7.87863
   H      -13.60201        11.69471        -2.95778
   H      -14.18651        14.65129        -6.04583
   H      -11.90381        16.94195       -11.67870
   H      -11.49454        17.68217       -10.11661
   H      -12.91474        16.60614       -10.25542
   H      -10.15288        11.65914       -10.07238
   H       -9.77365        14.21262       -11.72998
   H       -9.20244        12.51964       -12.16003
*
