# ORCA input file
# SCF done       -255.659532933678          0.000452105714
! CAM-B3LYP def2-SVP def2/J RIJCOSX Grid4 TightSCF
%maxcore 5000
%tddft
    Mode sTDDFT
    Ethresh 5.0
    maxcore 5000
end

%pal
  nprocs 6
  end
* xyz 0 1
   C        0.50688        -1.77998        -4.15238
   O       -0.21464        -2.68033        -4.52890
   C        0.80353        -0.53658        -4.89459
   C        1.69990         0.25155        -4.15235
   C        2.11365         1.47339        -4.65768
   C        1.62512         1.88382        -5.89307
   C        0.73652         1.09145        -6.62234
   C        0.31832        -0.13421        -6.12095
  Br        0.08787         1.67657        -8.29810
  Br        2.18770         3.55287        -6.58069
   C        2.02255        -0.44471        -2.90734
   C        2.89662         0.01198        -1.95576
   C        3.60089         1.23181        -2.05215
   N        4.20313         2.20843        -2.07194
   C        3.23717        -0.64819        -0.75574
   N        3.57344        -1.11084         0.24037
   C        1.26505        -1.68328        -2.89487
   C        1.24414        -2.58892        -1.86817
   C        0.54640        -3.80291        -1.72799
   C        0.64716        -4.55969        -0.57190
   C       -0.11779        -5.73282        -0.58400
   C       -0.24570        -6.70827         0.43713
   C        0.53251        -6.66129         1.65513
   C        0.15061        -7.01963         2.91804
   C        1.19462        -6.90292         3.85881
   C        2.38255        -6.47567         3.33778
   S        2.21369        -6.19172         1.64089
   C        3.67252        -6.23624         4.03113
  Cl        0.97538        -7.27924         5.52443
   C       -1.15167        -7.73143         0.19280
   C       -1.86978        -7.86547        -1.02396
   C       -1.69867        -6.92593        -2.05675
   C       -0.84883        -5.85522        -1.79712
   S       -0.52969        -4.54475        -2.89323
   C       -2.37440        -7.08346        -3.32985
   C       -2.52442        -8.22704        -4.06088
   C       -3.24652        -8.01666        -5.25521
   C       -3.65762        -6.72935        -5.44580
   S       -3.13516        -5.73621        -4.12816
   C       -4.43882        -6.15851        -6.57178
  Cl       -3.57336        -9.29264        -6.36662
   C       -2.72690        -8.99455        -1.00722
   C       -2.68738        -9.70745         0.15090
   S       -1.54715        -9.02486         1.29237
   C       -3.42203       -10.92507         0.43893
   C       -3.50279       -11.89326        -0.54231
   C       -4.16609       -13.10112        -0.32420
   C       -4.79449       -13.38178         0.87359
   C       -4.78996       -12.39943         1.90424
   C       -5.45470       -12.48946         3.13637
  Si       -4.64509       -11.21056         4.12282
   C       -4.24558       -10.18227         2.69524
   C       -4.08830       -11.13715         1.67676
   C       -5.48051       -14.65251         1.00331
   C       -5.02513       -15.86388         0.57529
   C       -5.94313       -16.92539         0.76399
   C       -5.75429       -18.29687         0.49972
   C       -4.52067       -18.80417        -0.06878
   C       -3.77775       -18.29487        -1.09434
   C       -2.61724       -19.05594        -1.35283
   C       -2.45689       -20.13819        -0.53628
   S       -3.77082       -20.23855         0.58254
   C       -1.35069       -21.12840        -0.51677
  Cl       -1.49939       -18.65020        -2.59844
   C       -6.79669       -19.14099         0.85301
   C       -8.00474       -18.70077         1.45327
   C       -8.19466       -17.32608         1.71751
   C       -7.15272       -16.47848         1.35217
   S       -7.10178       -14.76323         1.64789
   C       -9.38740       -16.80388         2.34803
   C      -10.01937       -15.62044         2.08333
   C      -11.12894       -15.39356         2.92361
   C      -11.35226       -16.37802         3.84339
   S      -10.17452       -17.63216         3.66527
   C      -12.42076       -16.46629         4.86972
  Cl      -12.10856       -13.98408         2.79088
   C       -8.89429       -19.77168         1.67811
   C       -8.39241       -20.99896         1.32308
   S       -6.80392       -20.85816         0.59193
   C       -9.06432       -22.24054         1.44178
   C       -8.53162       -23.49197         1.39679
   C       -9.38937       -24.65832         1.06448
   O      -10.59605       -24.70912         1.07137
   C       -8.43825       -25.72007         0.65800
   C       -7.11777       -25.27443         0.85806
   C       -7.15856       -23.94938         1.46949
   C       -6.15686       -23.38197         2.21092
   C       -6.37420       -22.28897         3.07933
   N       -6.53871       -21.45967         3.85507
   C       -4.83656       -23.87119         2.25175
   N       -3.74278       -24.21773         2.28075
   C       -6.05332       -26.09178         0.51973
   C       -6.32433       -27.34675        -0.01317
   C       -7.63641       -27.78786        -0.19677
   C       -8.70758       -26.96992         0.14054
  Br       -7.97421       -29.50526        -0.91093
  Br       -4.87454       -28.46052        -0.49365
   H        2.79753         2.11444        -4.12582
   H       -0.36919        -0.75647        -6.67248
   H        1.84856        -2.35316        -1.00055
   H        1.25194        -4.24157         0.25794
   H       -0.84486        -7.31832         3.18741
   H        3.87223        -5.16700         4.10812
   H        4.49467        -6.69079         3.48100
   H        3.63563        -6.65672         5.03313
   H       -2.09993        -9.17597        -3.78967
   H       -4.60238        -6.92007        -7.33022
   H       -3.90706        -5.31935        -7.01785
   H       -5.40550        -5.79551        -6.22304
   H       -3.39732        -9.23476        -1.81168
   H       -3.02215       -11.72495        -1.49423
   H       -4.20558       -13.82650        -1.12300
   H       -5.89752       -13.41883         3.45449
   H       -3.71747        -9.24464         2.64763
   H       -4.03466       -16.00399         0.18373
   H       -4.06153       -17.43827        -1.67729
   H       -1.04302       -21.36570        -1.53382
   H       -1.66411       -22.03834        -0.01152
   H       -0.48599       -20.72296         0.01057
   H       -9.73796       -14.94696         1.29561
   H      -12.94750       -15.51733         4.93262
   H      -11.99906       -16.70796         5.84391
   H      -13.13691       -17.24686         4.61172
   H       -9.86893       -19.66229         2.11696
   H      -10.14703       -22.19082         1.49791
   H       -5.02966       -25.77790         0.64790
   H       -9.72461       -27.30253         0.00185
*
