# ORCA input file
# SCF done       -173.023906366113          0.000479354510
! CAM-B3LYP def2-SVP def2/J RIJCOSX Grid4 TightSCF
%maxcore 5000
%tddft
    Mode sTDDFT
    Ethresh 5.0
    maxcore 5000
end

%pal
  nprocs 6
  end
* xyz 0 1
   O        6.75353        13.92516        -2.27605
   N        7.67950        13.36750        -3.05932
   C        7.80579        12.10993        -2.70981
   C        8.70702        11.22550        -3.34158
   N        9.42761        10.48639        -3.83390
   C        6.91747        11.80073        -1.63266
   C        6.27736        13.01353        -1.41126
   C        5.28657        13.35156        -0.47434
   N        4.47914        13.62717         0.28969
   C        6.70510        10.54353        -0.91529
   O        5.90912        10.40646        -0.01784
   O        7.52420         9.59882        -1.41300
   C        7.59609         8.30615        -0.96311
   C        6.73759         7.70043        -0.10385
   C        6.86662         6.36428         0.30554
   C        7.92238         5.51489        -0.26494
   C        8.86900         5.93786        -1.12980
   S        8.99531         7.55296        -1.71061
   C        7.70832         4.22113         0.28927
   C        6.61238         4.25787         1.14701
   C        6.35218         3.00073         1.73509
   C        7.23990         2.06183         1.31276
   S        8.42055         2.65997         0.19717
   C        6.08027         5.60148         1.18271
   C        4.97859         5.93310         2.00862
   C        4.49355         7.16406         2.32262
   C        3.38117         7.41702         3.17556
   C        2.59886         6.44726         3.76516
   C        1.53200         6.68187         4.62478
   C        1.05962         8.05088         4.87355
   C        1.66985         9.16090         4.39949
   S        3.08437         9.13141         3.43490
   C       -0.10858         7.91269         5.67039
   C       -0.34742         6.56141         5.92172
   C       -1.49846         6.36167         6.71648
   C       -2.09046         7.54102         7.03819
   S       -1.28177         8.93502         6.40111
   C        0.68604         5.77311         5.30208
   C        0.75422         4.37010         5.45110
   C        1.80936         3.55823         5.16526
   C        1.84692         2.14646         5.32851
   C        0.84730         1.36884         5.86574
   C        0.90870        -0.01225         6.03318
   C        2.08586        -0.78578         5.62029
   C        3.18953        -0.24243         5.06298
   S        3.36048         1.43673         4.76254
   C        1.78048        -2.13373         5.94981
   C        0.51229        -2.20916         6.53316
   C        0.17593        -3.53897         6.87603
   C        1.16806        -4.40932         6.55435
   S        2.54953        -3.66543         5.82493
   C       -0.04495        -0.88353         6.59214
   C       -1.29659        -0.46342         7.10804
   C       -2.23596        -1.22803         7.68830
   O       -3.37685        -0.60798         8.12662
   C       -4.34301        -1.31815         8.71971
   O       -4.32332        -2.50882         8.92031
   C       -5.44347        -0.42223         9.09466
   C       -5.54869         0.99266         8.91280
   N       -6.69227         1.43114         9.38405
   O       -7.36420         0.38841         9.87398
   C       -6.64216        -0.73616         9.71599
   C       -7.14025        -1.97426        10.15776
   N       -7.55178        -2.97949        10.51995
   C       -4.59046         1.84540         8.32341
   N       -3.80231         2.52369         7.84592
   H        5.90661         8.28376         0.25727
   H        9.63178         5.28068        -1.51603
   H        5.55908         2.78986         2.43002
   H        7.28176         1.02687         1.59064
   H        4.50756         5.06740         2.45554
   H        4.98147         8.05107         1.94878
   H        2.82713         5.42587         3.50812
   H        1.30648        10.15451         4.60988
   H       -1.87813         5.40693         7.03261
   H       -2.97523         7.69227         7.62512
   H       -0.13596         3.92868         5.87919
   H        2.73103         3.99098         4.80708
   H       -0.04562         1.87970         6.19366
   H        4.04602        -0.82863         4.77003
   H       -0.74305        -3.85389         7.33376
   H        1.18126        -5.47164         6.70122
   H       -1.52491         0.59163         7.03562
   H       -2.18851        -2.29244         7.85461
*
