# ORCA input file
# SCF done       -160.047478155042          0.000462037671
! CAM-B3LYP def2-SVP def2/J RIJCOSX Grid4 TightSCF
%maxcore 5000
%tddft
    Mode sTDDFT
    Ethresh 5.0
    maxcore 5000
end

%pal
  nprocs 6
  end
* xyz 0 1
   C        1.85513         2.77661         0.69332
   C        0.85802         3.61442         1.08339
   S        0.72470         3.65344         2.80517
   C        2.03708         2.52115         3.02133
   C        2.48592         2.08067         4.35987
   C        2.52140         2.15812         1.80217
   C        3.57345         1.27834         1.30339
   O        4.33962         0.59110         1.95768
   C        3.52158         1.39318        -0.16702
   C        2.45952         2.31329        -0.53942
   C        2.06441         2.70495        -1.79347
   C        1.00581         3.61951        -1.97090
   N        0.14688         4.36331        -2.13201
   C        2.62587         2.27721        -3.01062
   N        3.04116         1.96591        -4.03598
   C        4.35063         0.74244        -1.04080
   C        5.40806        -0.14905        -0.79036
   C        6.16142        -0.69966        -1.82424
   C        7.17663        -1.54715        -1.40157
   S        8.30131        -2.39404        -2.44532
   C        7.70605        -1.95592        -4.10368
   C        7.21525        -1.66683        -0.00635
   S        5.97741        -0.71059         0.75718
   C        8.09772        -2.41823         0.79964
   C        8.02887        -2.53131         2.18392
   C        9.04954        -3.32130         2.69694
   C        9.91221        -3.81481         1.69922
   S        9.45339        -3.31459         0.13194
   C       10.92587        -4.58087         2.32262
   C       10.70712        -4.57896         3.71224
   C        9.51679        -3.79418         3.99319
   C        8.95660        -3.55188         5.21226
   C        7.79131        -2.77166         5.37033
   N        6.84503        -2.14102         5.51589
   C        9.50637        -4.06637         6.40611
   N        9.95069        -4.47763         7.37964
   C       11.67609        -5.29561         4.41535
   C       12.62967        -5.83774         3.57598
   S       12.31830        -5.46469         1.88472
   C       13.77032        -6.60018         3.93674
   C       14.73338        -7.10823         3.09349
   C       15.73388        -7.82933         3.75521
   S       17.15734        -8.47806         2.97990
   C       17.08796        -7.72528         1.32916
   C       15.54063        -7.88780         5.14019
   S       14.11098        -6.98800         5.59030
   C       16.32035        -8.43416         6.17501
   C       17.24090        -9.44466         6.16948
   C       18.23335        -9.50037         7.28842
   O       18.21945        -8.82999         8.29697
   C       19.21982       -10.49347         6.85952
   C       20.39916       -10.97914         7.33226
   S       21.01237       -12.18715         6.22906
   C       19.66212       -12.02054         5.16174
   C       18.79484       -11.08365         5.62328
   C       17.51473       -10.51648         5.24553
   C       16.67113       -11.05842         4.30446
   C       17.07778       -12.12856         3.48472
   N       17.40031       -12.98581         2.79263
   C       15.33202       -10.67460         4.12276
   N       14.22928       -10.39646         3.96052
   C       21.12014       -10.60694         8.56980
   H        0.19169         4.21067         0.49283
   H        2.82424         2.93146         4.95083
   H        3.30428         1.37262         4.24961
   H        1.66935         1.60469         4.90199
   H        4.19306         0.93074        -2.09617
   H        5.95056        -0.46263        -2.85094
   H        8.35044        -2.49380        -4.79220
   H        7.80466        -0.88676        -4.26501
   H        6.67832        -2.28354        -4.22648
   H        7.26120        -2.04855         2.76175
   H       11.70599        -5.42349         5.48251
   H       14.68640        -6.96558         2.02967
   H       18.02244        -7.99967         0.84918
   H       17.01610        -6.64556         1.41560
   H       16.25390        -8.13785         0.76962
   H       16.21805        -7.93638         7.13598
   H       19.61784       -12.61897         4.27403
   H       20.55096        -9.84558         9.09834
   H       22.11098       -10.21836         8.33575
   H       21.24726       -11.47445         9.21672
*
