# ORCA input file
# SCF done       -210.181252114121          0.000903523129
! CAM-B3LYP def2-SVP def2/J RIJCOSX Grid4 TightSCF
%maxcore 5000
%tddft
    Mode sTDDFT
    Ethresh 5.0
    maxcore 5000
end

%pal
  nprocs 6
  end
* xyz 0 1
   C       -7.62303        -4.63001        -5.60020
   O       -6.97973        -5.62557        -5.34628
   C       -8.03928        -4.20812        -6.95764
   C       -8.82290        -3.04595        -6.87766
   C       -9.30571        -2.46591        -8.04256
   C       -9.00208        -3.05799        -9.25918
   C       -8.23248        -4.21258        -9.31201
   C       -7.73595        -4.80925        -8.16153
  Br       -7.84731        -4.99029       -11.00235
   C       -8.96626        -2.67868        -5.47124
   C       -9.79048        -1.69023        -5.00117
   C      -10.56492        -0.85081        -5.83035
   N      -11.21361        -0.13170        -6.44676
   C      -10.03468        -1.38401        -3.64455
   N      -10.31946        -1.07938        -2.57445
   C       -8.14818        -3.59157        -4.68705
   C       -7.85345        -3.38762        -3.36504
   C       -7.08497        -4.13449        -2.44912
   C       -6.50825        -5.38432        -2.51623
   C       -5.81861        -5.74268        -1.34693
   C       -5.87173        -4.73877        -0.35552
   S       -6.79174        -3.37041        -0.88048
   C       -5.24917        -4.84483         0.88090
   O       -5.41296        -3.76126         1.68706
   C       -5.25584        -3.84106         3.08389
   C       -4.51351        -6.02065         1.11608
   C       -4.48840        -7.05774         0.12602
   C       -5.12653        -6.95545        -1.09768
   O       -5.19076        -7.84445        -2.11123
   C       -4.53679        -9.08856        -2.04376
   S       -3.51190        -8.41191         0.68216
   C       -3.11708        -7.58316         2.16432
   C       -3.71794        -6.35996         2.23918
   C       -2.24535        -8.17993         3.11475
   C       -1.64586        -9.42113         3.06106
   C       -0.81934        -9.69650         4.15340
   C       -0.79866        -8.62590         5.05143
   S       -1.78787        -7.30929         4.56060
   C        0.03244        -8.78698         6.18756
   C        0.72068       -10.00133         6.26963
  Si        0.29351       -11.06626         4.78680
   C       -0.64515       -12.62199         5.23888
   C        1.76137       -11.40117         3.67419
   C        1.52801       -10.04399         7.40843
   C        1.46807        -8.89941         8.17748
   S        0.37394        -7.72184         7.49224
   C        2.18364        -8.60257         9.36775
   C        2.15770        -7.45262        10.10435
   C        3.02089        -7.46762        11.22135
   C        3.73995        -8.68419        11.34468
   S        3.28883        -9.77695        10.04612
   C        4.66058        -8.87815        12.36190
   O        5.42964        -9.95932        12.61984
   C        5.39789       -11.07931        11.76658
   C        4.82897        -7.80513        13.26843
   C        4.09492        -6.59304        13.15149
   C        3.18909        -6.39522        12.12603
   O        2.42694        -5.30520        11.86137
   C        2.68070        -4.09056        12.52819
   S        4.53517        -5.50120        14.44815
   C        5.72662        -6.62944        15.07437
   C        5.71769        -7.80020        14.35824
   C        6.50346        -6.36895        16.22634
   C        6.75864        -5.17793        16.83699
   C        7.17512        -5.14953        18.26197
   O        7.56723        -6.07715        18.93021
   C        6.94245        -3.75134        18.69651
   C        6.54582        -2.97394        17.59218
   C        6.57867        -3.81246        16.39688
   C        6.70320        -3.35769        15.10963
   C        6.55326        -2.00859        14.73534
   N        6.40629        -0.92745        14.37795
   C        7.10181        -4.18330        14.03644
   N        7.49395        -4.79740        13.14938
   C        6.24630        -1.63139        17.76530
   C        6.35126        -1.08429        19.03528
   C        6.75773        -1.86514        20.10933
   C        7.05974        -3.21247        19.96083
  Br        6.90047        -1.06713        21.82794
   H       -9.90118        -1.56826        -8.02602
   H       -9.36674        -2.61792       -10.17466
   H       -7.13500        -5.70476        -8.19531
   H       -8.24282        -2.47309        -2.93224
   H       -6.57104        -6.02311        -3.37737
   H       -5.82841        -3.00492         3.48633
   H       -4.20834        -3.71986         3.37659
   H       -5.65362        -4.77623         3.48530
   H       -4.77120        -9.58239        -2.98589
   H       -4.90720        -9.69809        -1.21526
   H       -3.45325        -8.97312        -1.95796
   H       -3.55315        -5.72407         3.08759
   H       -1.81106       -10.09813         2.24106
   H       -1.49870       -12.41751         5.88237
   H       -0.01151       -13.33315         5.76475
   H       -1.02554       -13.13060         4.35542
   H        2.30533       -10.49272         3.42281
   H        1.45668       -11.86113         2.73638
   H        2.47149       -12.07941         4.14279
   H        2.15245       -10.87832         7.67693
   H        1.54381        -6.60554         9.85893
   H        5.70606       -10.82061        10.75048
   H        4.40726       -11.54077        11.74177
   H        6.11228       -11.78311        12.19141
   H        2.44648        -4.15482        13.59440
   H        2.01952        -3.36267        12.06011
   H        3.71801        -3.77047        12.39943
   H        6.36206        -8.63087        14.58148
   H        6.87960        -7.24679        16.74257
   H        5.92625        -1.01413        16.94138
   H        6.11745        -0.04246        19.19226
   H        7.37591        -3.82057        20.79415
*
