# ORCA input file
# SCF done       -199.858663111755          0.000485235597
! CAM-B3LYP def2-SVP def2/J RIJCOSX Grid4 TightSCF
%maxcore 5000
%tddft
    Mode sTDDFT
    Ethresh 5.0
    maxcore 5000
end

%pal
  nprocs 6
  end
* xyz 0 1
   C       -6.99439        -0.42555         9.96881
   O       -6.02505        -0.54797         9.24646
   C       -7.30280         0.74615        10.82203
   C       -8.43394         0.47349        11.60977
   C       -8.89827         1.43336        12.49598
   C       -8.22906         2.64641        12.57780
   C       -7.11483         2.89318        11.78848
   C       -6.62745         1.94545        10.89800
  Br       -6.23395         4.57191        11.92982
   C       -8.91051        -0.87173        11.28964
   C      -10.03735        -1.46261        11.80653
   C      -10.86299        -0.86857        12.78168
   N      -11.56712        -0.43785        13.58002
   C      -10.53244        -2.72432        11.41927
   N      -11.00259        -3.73404        11.13776
   C       -8.03218        -1.42218        10.28666
   C       -8.00996        -2.73651         9.86790
   C       -7.30854        -3.24753         8.77566
   S       -6.86059        -4.94582         8.78441
   C       -5.99752        -4.83878         7.27451
   C       -6.12448        -3.55051         6.76799
   C       -6.86793        -2.65953         7.58083
   C       -7.05837        -1.40963         6.95047
   C       -6.43124        -1.34810         5.73987
   C       -6.37541        -0.23158         4.79199
   O       -5.78104        -0.26917         3.74265
   O       -7.06507         0.82995         5.22877
   C       -7.05313         1.96304         4.37145
   S       -5.59879        -2.81167         5.29389
   C       -5.29340        -5.93368         6.73510
   N       -5.30354        -7.18153         7.32531
   C       -4.51557        -8.00808         6.59107
   C       -4.02085        -9.30236         6.50323
   C       -3.19127        -9.32292         5.37098
   N       -3.19078        -8.07518         4.78238
   C       -3.98938        -7.25261         5.50466
   C       -4.47993        -5.95694         5.59095
   C       -2.40095       -10.35863         4.81705
   C       -2.34894       -11.62784         5.29139
   C       -1.58422       -12.72532         4.81199
   S       -1.97868       -14.22412         5.61251
   C       -0.58485       -12.92148         3.84761
   C        0.02886       -11.88871         2.99023
   O       -0.23268       -10.69457         3.02023
   C        1.02004       -12.41622         2.06793
   C        1.75007       -11.74789         1.10871
   N        2.53315       -12.64245         0.45922
   C        3.48790       -12.31409        -0.56977
   C        4.83240       -11.91850         0.03696
   C        2.33988       -13.87546         0.97868
   C        1.40029       -13.78257         1.98443
   C        0.83392       -14.81055         2.82526
   O        1.14637       -15.99049         2.73716
   C       -0.16270       -14.28346         3.78295
   C       -0.82234       -15.11368         4.68348
   C       -0.66192       -16.51335         4.81099
   C       -1.52307       -17.36162         5.42518
   C       -1.35030       -18.76942         5.42772
   C       -0.63181       -19.54348         4.56470
   C       -0.26603       -20.92298         4.98334
   O       -0.72563       -21.55149         5.90776
   C        0.82130       -21.32884         4.06484
   C        1.00258       -20.33347         3.08796
   C       -0.00269       -19.28876         3.27920
   C       -0.40815       -18.42672         2.29837
   C       -1.52349       -17.56994         2.39736
   N       -2.43954       -16.87880         2.39658
   C        0.21243       -18.31543         1.03601
   N        0.67739       -18.18055        -0.00423
   C        2.00947       -20.46425         2.14712
   C        2.80982       -21.59945         2.18703
   C        2.60789       -22.59608         3.14385
   C        1.60743       -22.46229         4.09780
  Br        3.70159       -24.13836         3.15997
  Br        4.19788       -21.77520         0.91631
   H       -9.75807         1.25976        13.12186
   H       -8.57669         3.40473        13.26243
   H       -5.75955         2.13083        10.28433
   H       -8.53531        -3.46926        10.46867
   H       -7.64060        -0.59795         7.34102
   H       -7.65357         2.72235         4.86519
   H       -7.47878         1.70695         3.39898
   H       -6.03045         2.31619         4.22491
   H       -5.81833        -7.41160         8.15829
   H       -4.21193       -10.12726         7.15837
   H       -2.65910        -7.84150         3.96082
   H       -4.29083        -5.12447         4.94510
   H       -1.79440       -10.09086         3.96518
   H       -2.97928       -11.88374         6.13458
   H        1.74303       -10.70665         0.85426
   H        3.08877       -11.48851        -1.16432
   H        3.61108       -13.18494        -1.21783
   H        4.71686       -11.05266         0.68454
   H        5.53748       -11.67276        -0.75184
   H        5.23811       -12.73819         0.62474
   H        2.85530       -14.74041         0.61103
   H        0.22566       -16.90938         4.33812
   H       -2.36818       -16.96389         5.97266
   H       -1.80648       -19.31587         6.24759
   H        2.19579       -19.70686         1.40300
   H        1.44899       -23.22261         4.84671
*
