# ORCA input file
# SCF done       -190.256352769990          0.000897348549
! CAM-B3LYP def2-SVP def2/J RIJCOSX Grid4 TightSCF
%maxcore 5000
%tddft
    Mode sTDDFT
    Ethresh 5.0
    maxcore 5000
end

%pal
  nprocs 6
  end
* xyz 0 1
   C       -8.49906        -6.20055        -2.82768
   O       -7.97979        -7.03349        -2.10286
   C       -9.23883        -6.46823        -4.07879
   C       -9.69978        -5.25128        -4.61210
   C      -10.41936        -5.25524        -5.79704
   C      -10.66509        -6.46758        -6.42663
   C      -10.20029        -7.65527        -5.88035
   C       -9.47791        -7.67820        -4.69411
  Br      -10.55969        -9.29084        -6.77834
   C       -9.27659        -4.16195        -3.72989
   C       -9.55871        -2.83169        -3.92651
   C      -10.30837        -2.33553        -5.01247
   N      -10.91148        -1.86743        -5.87026
   C       -9.15313        -1.77589        -3.08582
   N       -8.85732        -0.86502        -2.44993
   C       -8.52720        -4.75259        -2.64641
   C       -7.91613        -4.06968        -1.61366
   C       -7.14929        -4.54546        -0.55717
   S       -6.72518        -6.20030        -0.19230
   C       -5.73304        -5.74768         1.18523
   C       -5.77408        -4.35677         1.35829
   C       -6.56330        -3.68404         0.40105
   C       -6.60480        -2.28562         0.60125
   C       -5.88708        -1.91878         1.70299
   C       -5.54451        -0.61023         2.26352
   O       -4.73059        -0.51063         3.16154
   O       -6.17117         0.40023         1.68917
   C       -5.84217         1.71275         2.14721
   S       -5.14474        -3.25529         2.53378
   C       -5.09377        -6.78315         1.87862
   C       -4.05896        -6.70437         2.78684
   C       -3.53252        -7.76312         3.56971
   C       -2.52823        -7.39533         4.41983
   C       -2.19859        -6.02709         4.33964
   S       -3.15915        -5.24681         3.10624
   C       -1.34181        -5.22999         5.07809
   C       -0.44264        -5.54501         6.12054
   C        0.19477        -4.46000         6.64214
   C       -0.17229        -3.22142         6.04713
   S       -1.34382        -3.50862         4.77040
   C        0.34610        -1.98380         6.31234
   C       -0.08036        -0.76760         5.71415
   S        1.13787         0.41196         5.27970
   C       -0.05389         1.48931         4.60184
   C       -1.31840         0.92819         4.68943
   C       -1.34137        -0.31565         5.35208
   C       -2.67056        -0.87615         5.75185
   C       -3.45258         0.16021         6.55183
   S       -3.58756         1.75801         5.66002
   O       -2.93274         2.77157         6.44686
   O       -4.95824         2.00387         5.30031
   C       -2.57995         1.47220         4.16643
   C        0.34636         2.74782         4.07863
   C       -0.39879         3.88188         4.14011
   C        0.03663         5.13585         3.63777
   C        0.88296         5.38891         2.59895
   C        1.56406         6.70772         2.50501
   O        1.30489         7.70974         3.12711
   C        2.65808         6.50508         1.52559
   C        2.55967         5.21493         0.97284
   C        1.37138         4.56136         1.51655
   C        0.71114         3.51685         0.92170
   C        1.20002         2.80791        -0.19388
   N        1.56335         2.18618        -1.08790
   C       -0.57783         3.09717         1.29849
   N       -1.65123         2.75468         1.52032
   C        3.50030         4.78711         0.04777
   C        4.51689         5.65585        -0.31819
   C        4.58700         6.93164         0.22689
   C        3.66106         7.37879         1.16070
  Br        5.99008         8.09028        -0.31693
   H      -10.78919        -4.34572        -6.24065
   H      -11.22255        -6.48711        -7.35049
   H       -9.11305        -8.59883        -4.26585
   H       -8.02143        -2.99326        -1.61619
   H       -7.12149        -1.58115        -0.02514
   H       -6.64611         2.35735         1.80233
   H       -4.89296         2.02618         1.70746
   H       -5.76157         1.73885         3.23708
   H       -5.44696        -7.77908         1.64121
   H       -3.93465        -8.75863         3.50343
   H       -2.04162        -8.06256         5.10861
   H       -0.29116        -6.55688         6.45162
   H        0.91056        -4.50166         7.44391
   H        1.21776        -1.93301         6.95174
   H       -2.54779        -1.76893         6.36573
   H       -3.24398        -1.14801         4.86160
   H       -2.96075         0.40109         7.49077
   H       -4.47253        -0.16524         6.72950
   H       -2.47727         2.39026         3.59985
   H       -3.13901         0.73258         3.59716
   H        1.35974         2.80322         3.69635
   H       -1.30974         3.88166         4.72333
   H       -0.28708         6.01321         4.18883
   H        3.46291         3.79865        -0.38071
   H        5.26033         5.34064        -1.03410
   H        3.71451         8.36846         1.58696
*
