# ORCA input file
# SCF done       -256.506193439002          0.000734718335
! CAM-B3LYP def2-SVP def2/J RIJCOSX Grid4 TightSCF
%maxcore 5000
%tddft
    Mode sTDDFT
    Ethresh 5.0
    maxcore 5000
end

%pal
  nprocs 6
  end
* xyz 0 1
   C        2.51841        -2.62776         0.84792
   O        2.62888        -3.59994         0.13727
   C        3.35665        -1.40881         0.78527
   C        2.92066        -0.47387         1.73920
   C        3.56981         0.74937         1.84411
   C        4.63878         1.01231         1.00221
   C        5.05461         0.07076         0.06853
   C        4.41843        -1.15620        -0.05888
  Br        6.52783         0.47568        -1.05978
   C        1.79112        -1.03960         2.46793
   C        1.17656        -0.47025         3.55017
   C        1.52320         0.79037         4.08254
   N        1.75566         1.81000         4.55504
   C        0.13739        -1.06091         4.30187
   N       -0.69455        -1.47918         4.97340
   C        1.49591        -2.34406         1.89074
   C        0.36207        -3.06005         2.11650
   C        0.03174        -4.37667         1.64450
   C       -1.32040        -4.66079         1.37700
   C       -1.66950        -5.89916         0.90330
   C       -0.69001        -6.89297         0.72382
   C        0.63827        -6.64131         1.03963
   C        0.99156        -5.38729         1.49158
   C       -1.33732        -8.08840         0.23313
   C       -2.71596        -7.83732         0.10654
   C       -3.03057        -6.40408         0.47211
   C       -4.06880        -6.30677         1.60002
   C       -3.61480        -7.01715         2.87011
   C       -3.44756        -5.57072        -0.76366
   C       -4.70138        -6.03656        -1.49157
   C       -3.57047        -8.83941        -0.28735
   C       -3.05204       -10.10098        -0.61801
   C       -1.67469       -10.32668        -0.50438
   C       -0.81667        -9.33824        -0.07123
   C       -3.91867       -11.15330        -1.10014
   C       -5.27107       -11.11517        -1.30701
   C       -5.79696       -12.30951        -1.84747
   C       -4.80203       -13.27954        -2.04697
   S       -3.24184       -12.70405        -1.55615
   C       -5.03940       -14.54022        -2.58910
   O       -3.94479       -15.31441        -2.68480
   C       -3.95879       -16.64777        -3.14701
   C       -6.37395       -14.80387        -2.97534
   C       -7.39402       -13.81241        -2.76526
   C       -7.14318       -12.57801        -2.19838
   O       -7.99849       -11.56087        -1.93366
   C       -9.38143       -11.69791        -2.16136
   S       -8.93383       -14.39523        -3.38048
   C       -8.21532       -15.90189        -3.92198
   C       -6.87892       -15.95035        -3.61438
   C       -9.04498       -16.85696        -4.55500
   C       -8.78836       -18.08504        -5.18328
   C       -7.48100       -18.65788        -5.47356
   O       -6.41014       -18.08995        -5.35075
   C       -7.53395       -20.03698        -6.00753
   C       -8.73256       -20.68528        -6.39984
   C       -8.49658       -21.94522        -6.89557
   S       -6.83256       -22.36831        -6.87899
   C       -6.43280       -20.83584        -6.20978
   C       -5.00253       -20.52479        -5.89465
   F       -4.49031       -19.56359        -6.66839
   F       -4.82255       -20.15160        -4.62133
   F       -4.22872       -21.60802        -6.08045
   C       -9.50159       -22.92444        -7.42224
   F      -10.38203       -23.30943        -6.49667
   F      -10.18437       -22.44461        -8.46446
   F       -8.88924       -24.04249        -7.85250
   C      -10.05547       -20.05095        -6.23499
   O      -11.09101       -20.59295        -6.55598
   C       -9.98358       -18.72381        -5.61849
   C      -11.13777       -18.00211        -5.35343
   S      -10.75191       -16.50989        -4.54828
   C      -12.46670       -18.32842        -5.72912
   C      -13.61110       -17.99285        -5.07894
   C      -14.92127       -18.02353        -5.79268
   O      -15.15001       -18.49926        -6.87465
   C      -15.85366       -17.28228        -4.90741
   C      -15.19101       -16.93553        -3.71517
   C      -15.84673       -16.18625        -2.75141
   C      -17.16914       -15.80969        -2.97145
   C      -17.82723       -16.17549        -4.15778
   C      -17.16255       -16.91866        -5.13872
   C      -19.18407       -15.83048        -4.38699
   N      -20.28156       -15.63018        -4.64345
   C      -17.90204       -14.94588        -1.98329
   O      -18.71027       -14.13278        -2.32692
   O      -17.59153       -15.12532        -0.69453
   C      -13.84490       -17.50430        -3.73664
   C      -13.08792       -17.76617        -2.62421
   C      -11.91201       -18.54559        -2.62867
   N      -10.97072       -19.19978        -2.57214
   C      -13.47333       -17.36784        -1.32811
   N      -13.77564       -17.05272        -0.26671
   H        3.26042         1.49633         2.55638
   H        5.15416         1.95802         1.07011
   H        4.73370        -1.89108        -0.78334
   H       -0.42606        -2.57674         2.68302
   H       -2.06177        -3.88819         1.52209
   H        1.38573        -7.41203         0.93236
   H        2.01480        -5.18982         1.76390
   H       -5.00662        -6.74875         1.26160
   H       -4.25353        -5.25328         1.81907
   H       -3.43362        -8.07221         2.67604
   H       -4.37997        -6.93487         3.63821
   H       -2.69677        -6.57645         3.25213
   H       -2.61220        -5.57578        -1.46878
   H       -3.59157        -4.54017        -0.43176
   H       -4.55091        -7.01541        -1.93842
   H       -4.93228        -5.33475        -2.29006
   H       -5.55738        -6.07720        -0.82331
   H       -4.63278        -8.66806        -0.33911
   H       -1.28493       -11.30169        -0.75770
   H        0.23995        -9.53428         0.02635
   H       -5.89863       -10.26930        -1.09931
   H       -2.93250       -16.99311        -3.02675
   H       -4.23413       -16.71314        -4.20224
   H       -4.61912       -17.27660        -2.54495
   H       -9.80295       -12.53528        -1.59961
   H       -9.60828       -11.81652        -3.22391
   H       -9.82250       -10.76840        -1.80362
   H       -6.29319       -16.80610        -3.87389
   H      -12.58610       -18.86279        -6.66730
   H      -15.32693       -15.85779        -1.86370
   H      -17.66134       -17.19871        -6.05403
   H      -16.94786       -15.82880        -0.53077
*
