# ORCA input file
# SCF done       -248.157381898588          0.000298789477
! CAM-B3LYP def2-SVP def2/J RIJCOSX Grid4 TightSCF
%maxcore 5000
%tddft
    Mode sTDDFT
    Ethresh 5.0
    maxcore 5000
end

%pal
  nprocs 6
  end
* xyz 0 1
   C        2.95334        -1.24889         3.69092
   C        1.84577        -0.57065         4.18330
   C        0.64398        -0.69094         3.51980
   C        0.54560        -1.48635         2.36811
   C        1.65195        -2.16091         1.87969
   C        2.85658        -2.03398         2.55261
   C       -0.82358        -1.42897         1.88564
   C       -1.56222        -0.59853         2.74178
   C       -0.68828        -0.05950         3.84980
   C       -0.60834         1.47766         3.80377
   C       -0.11122         2.00310         2.46250
   C       -1.19741        -0.50793         5.23214
   C       -1.31148        -2.02263         5.35559
   C       -2.89861        -0.36930         2.51449
   C       -3.52209        -0.96624         1.41468
   C       -2.77736        -1.78904         0.56920
   C       -1.43403        -2.02836         0.79640
   C       -4.94581        -0.71813         1.15584
   C       -5.85264        -0.67735         2.21955
   C       -7.18082        -0.41490         1.97258
   C       -7.62918        -0.23180         0.65369
   C       -6.73912        -0.27714        -0.40786
   C       -5.40267        -0.51105        -0.14645
   C       -9.06526        -0.04700         0.67339
   C       -9.50396        -0.12169         2.00519
   C       -8.33300        -0.30766         2.94666
   C       -8.24444         0.97027         3.81418
   C       -7.00579         1.09494         4.69139
   C       -8.48148        -1.56957         3.80957
   C       -8.69181        -2.82412         2.96944
   C      -10.83599         0.01793         2.30685
   C      -11.75787         0.21132         1.26928
   C      -11.30976         0.30072        -0.05202
   C       -9.96990         0.17111        -0.35515
   C      -13.15712         0.39380         1.59175
   C      -14.29617        -0.00417         0.91791
   C      -14.29416        -0.94928        -0.19415
   O      -13.34184        -1.61212        -0.54928
   C      -15.62167        -1.08260        -0.84457
   C      -16.79741        -0.47223        -0.33603
   C      -17.89669        -0.76130        -1.10789
   S      -17.52408        -1.75497        -2.46069
   C      -15.87099        -1.79804        -1.99027
   C      -14.88841        -2.54480        -2.83719
   F      -13.87690        -1.77404        -3.25016
   F      -14.36776        -3.60937        -2.22370
   F      -15.48283        -3.00943        -3.95331
   C      -19.31345        -0.32925        -0.89102
   F      -19.79758        -0.71842         0.29182
   F      -19.47859         0.99197        -0.98769
   F      -20.12055        -0.87518        -1.82198
   C      -16.81149         0.37788         0.88161
   O      -17.82163         0.94479         1.24418
   C      -15.50369         0.49213         1.51868
   C      -15.26781         1.21335         2.67512
   S      -13.56654         1.32876         2.99435
   C      -16.18489         1.83146         3.60924
   C      -15.84701         3.07081         4.17010
   C      -16.70693         3.66232         5.06152
   C      -17.90694         3.02722         5.41997
   C      -18.23095         1.78577         4.89274
   C      -17.36843         1.19410         3.99241
   C      -18.59911         3.86540         6.37693
   C      -17.82406         5.01357         6.61285
   C      -16.58589         5.00794         5.74441
   C      -16.65264         6.08354         4.63444
   C      -16.72899         7.52824         5.11036
   C      -15.29587         5.12363         6.56976
   C      -15.14901         3.98826         7.57661
   C      -18.22715         5.93793         7.54927
   C      -19.43872         5.75655         8.22326
   C      -20.21376         4.62768         7.95441
   C      -19.79738         3.67277         7.04653
   C      -19.88962         6.75649         9.19971
   C      -18.97822         7.33600        10.08719
   C      -19.41518         8.28547        10.98081
   C      -20.76147         8.67970        11.00399
   C      -21.67195         8.10780        10.13107
   C      -21.22791         7.14897         9.23856
   C      -20.92629         9.69783        12.02711
   C      -19.68066         9.92514        12.63145
   C      -18.61984         9.03946        12.02077
   C      -17.49602         9.86995        11.37430
   C      -18.01175        10.83469        10.31317
   C      -18.01816         8.08322        13.06738
   C      -19.07194         7.22713        13.75940
   C      -19.55473        10.85573        13.64002
   C      -20.68061        11.56145        14.04438
   C      -21.91144        11.33668        13.44769
   C      -22.04698        10.40262        12.43320
   H        3.90178        -1.16327         4.20110
   H        1.93296         0.03900         5.07124
   H        1.57933        -2.77332         0.99312
   H        3.73127        -2.55226         2.18716
   H        0.06148         1.81717         4.59689
   H       -1.60080         1.88619         4.00744
   H        0.88640         1.62585         2.24909
   H       -0.07352         3.09012         2.47607
   H       -0.77455         1.69095         1.65885
   H       -2.17544        -0.05430         5.40891
   H       -0.51309        -0.13262         5.99615
   H       -2.00374        -2.41718         4.61495
   H       -1.67332        -2.29269         6.34526
   H       -0.34288        -2.49317         5.20228
   H       -3.46381         0.28640         3.16131
   H       -3.26910        -2.26567        -0.26630
   H       -0.87502        -2.67335         0.13476
   H       -5.50206        -0.88695         3.21879
   H       -7.08284        -0.13403        -1.42130
   H       -4.69330        -0.52428        -0.96083
   H       -9.13451         1.00337         4.44680
   H       -8.28478         1.83324         3.14394
   H       -6.90252         0.24252         5.35767
   H       -7.08592         1.99208         5.30202
   H       -6.10991         1.18053         4.08292
   H       -9.32910        -1.43682         4.48560
   H       -7.58388        -1.69539         4.41669
   H       -9.59274        -2.73906         2.36608
   H       -8.78960        -3.69482         3.61395
   H       -7.84762        -2.98312         2.30209
   H      -11.18951        -0.04111         3.32670
   H      -12.01854         0.49025        -0.84212
   H       -9.63635         0.24448        -1.37862
   H      -14.92329         3.55124         3.87931
   H      -19.14200         1.28415         5.17995
   H      -17.60236         0.22186         3.58978
   H      -17.52908         5.87175         4.01659
   H      -15.76879         5.96264         4.00368
   H      -17.65064         7.70950         5.65614
   H      -16.71325         8.19103         4.24767
   H      -15.88433         7.78368         5.74503
   H      -15.29857         6.07430         7.10455
   H      -14.43999         5.12162         5.89129
   H      -15.99153         3.97634         8.26475
   H      -14.23451         4.11229         8.15247
   H      -15.10900         3.02675         7.06961
   H      -17.62956         6.81076         7.76452
   H      -21.13957         4.48553         8.49231
   H      -20.39353         2.79089         6.86608
   H      -17.94528         7.01863        10.07798
   H      -22.70979         8.40619        10.14024
   H      -21.92353         6.71164         8.53716
   H      -16.77118         9.18792        10.92388
   H      -16.98215        10.43280        12.15661
   H      -18.50754        10.29342         9.51025
   H      -17.18679        11.40279         9.88889
   H      -18.72504        11.53293        10.74532
   H      -17.48333         8.67396        13.81437
   H      -17.29230         7.43407        12.57240
   H      -19.79763         7.85355        14.27333
   H      -18.60252         6.57239        14.49025
   H      -19.60218         6.61215        13.03555
   H      -18.60039        11.03911        14.11256
   H      -20.59602        12.29455        14.83340
   H      -22.77387        11.89724        13.77819
   H      -23.00701        10.22972        11.96973
*
