# ORCA input file
# SCF done       -192.503027591171          0.000761149694
! CAM-B3LYP def2-SVP def2/J RIJCOSX Grid4 TightSCF
%maxcore 5000
%tddft
    Mode sTDDFT
    Ethresh 5.0
    maxcore 5000
end

%pal
  nprocs 6
  end
* xyz 0 1
   C        2.16223         0.07803        -3.64695
   C        3.12199         0.98930        -4.05636
   F        2.78637         2.27389        -4.18136
   C        4.43505         0.59673        -4.33334
   F        5.32629         1.51004        -4.72613
   C        4.82210        -0.72626        -4.19951
   C        3.86825        -1.63450        -3.78188
   C        2.54234        -1.24945        -3.51163
   C        1.76918        -2.42807        -3.14336
   C        0.40971        -2.48703        -3.02591
   C       -0.45534        -1.38049        -3.19204
   N       -1.22964        -0.54480        -3.32177
   C       -0.35183        -3.65812        -2.82329
   N       -1.05925        -4.55603        -2.70929
   C        2.69933        -3.54843        -3.05625
   C        4.02485        -3.08760        -3.56685
   O        4.99371        -3.76685        -3.80169
   C        2.40551        -4.80445        -2.66189
   C        3.31325        -5.92840        -2.58801
   C        4.53964        -5.94382        -1.99189
   F        5.12319        -4.92929        -1.37269
   S        5.28311        -7.50585        -1.91801
   C        3.89995        -8.16298        -2.72174
   F        3.86807        -9.45672        -3.01736
   C        2.93178        -7.24820        -3.03637
   C        1.71090        -7.53550        -3.73963
   C        1.07210        -6.58223        -4.44969
   C       -0.21515        -6.66681        -5.05320
   C       -0.74420        -5.51476        -5.68303
   C       -2.05102        -5.49688        -6.28758
   N       -2.55380        -4.33979        -6.75994
   C       -1.82354        -3.25816        -6.71577
   C       -0.48565        -3.29719        -6.19642
   N        0.00186        -4.39884        -5.68480
   C        0.33565        -2.14258        -6.19222
   N        1.00956        -1.21581        -6.17597
   C       -2.35875        -2.03878        -7.20371
   N       -2.75018        -1.04605        -7.61790
   C       -2.83804        -6.65829        -6.36547
   C       -2.33792        -7.79213        -5.70827
   C       -1.05806        -7.79085        -5.03253
   N       -0.81816        -8.96512        -4.44067
   S       -2.04781        -9.95099        -4.70391
   N       -2.94200        -8.98401        -5.60713
   C       -4.12461        -6.65915        -7.04293
   C       -5.23107        -7.29763        -6.55472
   F       -5.32604        -7.96852        -5.41604
   S       -6.67451        -7.08475        -7.48616
   C       -5.77243        -6.06818        -8.55039
   F       -6.37577        -5.53752        -9.60399
   C       -4.44456        -5.92791        -8.24403
   C       -3.59468        -5.09882        -9.07427
   C       -2.30579        -5.28142        -9.43238
   C       -1.43025        -6.36054        -9.12404
   C       -1.65325        -7.68782        -8.92441
   C       -0.56784        -8.49144        -8.29727
   O        0.54509        -8.10901        -8.01892
   C       -1.17440        -9.80305        -7.99603
   C       -2.51815        -9.80463        -8.41283
   C       -3.31543       -10.91243        -8.17322
   C       -2.74355       -11.99754        -7.52650
   C       -1.40366       -11.99455        -7.13209
   C       -0.60074       -10.88803        -7.36189
   F       -0.89622       -13.06168        -6.50629
   F       -3.49569       -13.06920        -7.26757
   C       -2.80106        -8.54898        -9.10863
   C       -3.86731        -8.33695        -9.94050
   C       -3.94048        -7.27992       -10.87133
   N       -4.01426        -6.47662       -11.68624
   C       -4.98148        -9.19858       -10.02739
   N       -5.93216        -9.83568       -10.10438
   H        1.16145         0.42683        -3.45291
   H        5.83396        -1.03162        -4.41394
   H        1.39175        -5.04504        -2.36530
   H        1.31860        -8.54049        -3.68234
   H        1.55051        -5.62341        -4.59268
   H       -4.09558        -4.22025        -9.46049
   H       -1.83660        -4.46960        -9.97493
   H       -0.38372        -6.08175        -9.01107
   H       -4.35465       -10.96173        -8.45317
   H        0.43280       -10.87878        -7.05318
*
