# ORCA input file
# SCF done       -186.350523326950          0.000740751497
! CAM-B3LYP def2-SVP def2/J RIJCOSX Grid4 TightSCF
%maxcore 5000
%tddft
    Mode sTDDFT
    Ethresh 5.0
    maxcore 5000
end

%pal
  nprocs 6
  end
* xyz 0 1
   C        4.66574         0.30915        -1.75407
   C        5.17041         0.84986        -0.58136
   F        6.19263         1.70477        -0.64754
   C        4.63521         0.51946         0.66711
   F        5.14894         1.07112         1.76953
   C        3.58101        -0.37327         0.77493
   C        3.08253        -0.92195        -0.39140
   C        3.61243        -0.58547        -1.65209
   C        2.85480        -1.28737        -2.67970
   C        2.73127        -0.93451        -3.99366
   C        3.49170         0.07869        -4.61542
   N        4.10166         0.88841        -5.15043
   C        1.72368        -1.49723        -4.80262
   N        0.85126        -1.90526        -5.42656
   C        2.02222        -2.26705        -2.00236
   C        1.99049        -1.90869        -0.55229
   O        1.26552        -2.36748         0.29325
   C        1.45597        -3.40863        -2.44863
   C        1.76514        -4.13154        -3.65564
   C        3.01866        -4.23685        -4.19663
   F        4.11220        -3.61606        -3.75472
   S        3.16297        -5.37261        -5.48484
   C        1.47107        -5.69932        -5.32784
   F        0.91893        -6.57391        -6.15634
   C        0.83291        -4.98625        -4.34895
   C       -0.58442        -4.93407        -4.11594
   C       -1.49128        -5.79745        -4.61310
   C       -2.89641        -5.61088        -4.50781
   S       -3.60428        -4.15044        -3.89337
   C       -5.21723        -4.68742        -4.27555
   C       -5.18580        -5.94935        -4.85087
   C       -3.88272        -6.47462        -4.95657
   S       -3.45801        -8.10235        -5.46258
   C       -4.77459        -8.68114        -6.47960
   O       -4.73352        -9.80782        -6.88486
   C       -5.96819        -7.81239        -6.81116
   O       -6.61591        -7.97818        -7.79618
   S       -6.61335        -6.70015        -5.55290
   C       -6.27777        -3.76119        -4.05215
   C       -7.59578        -3.97494        -4.21828
   C       -8.59796        -2.93345        -4.10748
   C       -9.80957        -3.19218        -3.53343
   F      -10.19318        -4.36351        -3.03857
   S      -10.87711        -1.83530        -3.39257
   C       -9.66603        -0.88122        -4.16000
   F       -9.91327         0.40068        -4.40611
   C       -8.51870        -1.54807        -4.52021
   C       -7.51497        -0.87459        -5.29845
   C       -6.52981        -1.47402        -6.00386
   C       -5.54514        -0.76402        -6.73140
   C       -4.44360        -1.29839        -7.32810
   C       -3.32011        -0.40252        -7.72373
   O       -3.36560         0.79493        -7.86380
   C       -2.14203        -1.29097        -7.83861
   C       -2.53822        -2.62421        -7.62775
   C       -1.58911        -3.63481        -7.61117
   C       -0.26741        -3.28402        -7.83271
   C        0.11357        -1.96429        -8.08108
   C       -0.82615        -0.94695        -8.07900
   F        1.39742        -1.68518        -8.32153
   F        0.67206        -4.23543        -7.80075
   C       -3.99424        -2.66790        -7.48694
   C       -4.76205        -3.78501        -7.67944
   C       -6.16759        -3.80092        -7.83115
   N       -7.29808        -3.89199        -8.00244
   C       -4.24098        -5.08369        -7.83529
   N       -3.90485        -6.17945        -7.91029
   H        5.10924         0.58481        -2.69740
   H        3.16954        -0.62720         1.73890
   H        0.77237        -3.90597        -1.76859
   H       -0.92551        -4.08810        -3.53360
   H       -1.18734        -6.68039        -5.15664
   H       -5.94250        -2.77849        -3.74392
   H       -7.97971        -4.96776        -4.39741
   H       -7.62128         0.20243        -5.34681
   H       -6.46107        -2.54632        -5.98740
   H       -5.60017         0.31916        -6.73488
   H       -1.83069        -4.66874        -7.42528
   H       -0.53391         0.07586        -8.25522
*
