# ORCA input file
# SCF done       -203.677884850193          0.000546455908
! CAM-B3LYP def2-SVP def2/J RIJCOSX Grid4 TightSCF
%maxcore 5000
%tddft
    Mode sTDDFT
    Ethresh 5.0
    maxcore 5000
end

%pal
  nprocs 6
  end
* xyz 0 1
   C       -3.89083        -9.70316         7.87300
   C       -3.15073        -9.05077         8.84918
   C       -2.52662        -7.84063         8.58696
   C       -2.65665        -7.22678         7.35048
   C       -3.41113        -7.85852         6.37728
   C       -4.00468        -9.11636         6.62370
   C       -4.65515        -9.57480         5.40021
   C       -5.36355       -10.74136         5.26716
   C       -5.56755       -11.67011         6.30981
   N       -5.75818       -12.48625         7.09432
   C       -5.99483       -11.19529         4.09113
   N       -6.53438       -11.63435         3.17676
   C       -4.36099        -8.59396         4.36534
   C       -3.77043        -7.44116         5.03057
   C       -3.81381        -6.12683         4.62577
   C       -4.41997        -5.67434         3.43740
   N       -4.94437        -5.23946         2.51258
   C       -3.34611        -5.05389         5.40364
   N       -2.97774        -4.13009         5.98086
   C       -4.56477        -8.79876         3.01703
   C       -3.92917        -8.10814         1.96541
   C       -2.72920        -7.43785         2.11914
   C       -2.17056        -6.59266         1.18251
   C       -2.79292        -6.35872        -0.12437
   C       -3.88485        -7.03330        -0.55281
   S       -4.74732        -8.16444         0.40311
   C       -2.04294        -5.29894        -0.69935
   C       -1.06656        -4.85401         0.20857
   C       -0.31955        -3.76776        -0.30307
   C       -0.73220        -3.42362        -1.54874
   S       -2.03962        -4.39182        -2.15459
   C       -1.11406        -5.67157         1.37527
   C       -0.43034        -5.55574         2.61222
   C       -0.04852        -4.40391         3.21248
   C        0.30741        -4.38597         4.58762
   S        0.84542        -5.82793         5.39671
   C        0.63014        -5.09871         6.96483
   C        0.15151        -3.79851         6.84247
   C        0.05510        -3.37689         5.50541
   C       -0.29631        -1.96543         5.13000
   N        0.36823        -1.58071         3.89190
   C        0.05322        -1.06220         6.32309
   C       -0.70487        -1.53398         7.55237
   C       -0.28384        -2.94562         8.00492
   N       -1.37460        -3.63483         8.69222
   C        1.00285        -5.89159         8.08467
   C        0.50396        -5.78079         9.33717
   C        0.86644        -6.60919        10.43637
   C       -0.00257        -6.77948        11.49374
   C        0.22580        -7.62070        12.57443
   C        1.54491        -8.20110        12.82192
   C        2.55166        -8.16647        11.91839
   S        2.41710        -7.42764        10.37533
   C        1.46604        -8.77262        14.12488
   C        0.17917        -8.60882        14.63830
   C        0.03988        -9.17967        15.92067
   C        1.20193        -9.74556        16.34287
   S        2.49953        -9.61963        15.20592
   C       -0.63530        -7.94082        13.65343
   C       -2.02179        -7.75357        13.70540
   C       -2.81238        -7.63123        12.58474
   C       -4.20021        -7.47365        12.54390
   C       -5.04454        -7.00622        13.53409
   C       -6.45318        -7.33259        13.62675
   C       -7.24640        -7.90227        12.65913
   C       -6.83628        -8.23728        11.35351
   N       -6.57659        -8.52906        10.27196
   C       -8.61589        -8.18626        12.83138
   N       -9.73401        -8.43897        12.90342
   C       -6.88902        -6.94541        14.96548
   C       -5.82379        -6.28095        15.61401
   C       -5.96137        -5.82220        16.91226
   C       -7.16878        -6.03073        17.56349
   C       -8.21838        -6.67519        16.92687
   C       -8.09182        -7.13728        15.62416
   C       -4.70930        -6.18984        14.68099
   C       -3.68452        -5.27423        14.75534
   C       -3.44200        -4.44976        15.86870
   N       -3.18039        -3.77104        16.75815
   C       -2.82068        -4.98979        13.68322
   N       -2.13413        -4.67397        12.81682
   H       -4.36212       -10.64515         8.09705
   H       -3.05594        -9.50575         9.82377
   H       -1.92970        -7.35693         9.34474
   H       -2.16028        -6.28852         7.16299
   H       -5.25129        -9.58017         2.72233
   H       -2.22206        -7.56444         3.06611
   H       -4.32201        -6.87339        -1.52591
   H        0.47844        -3.27467         0.22108
   H       -0.34789        -2.64360        -2.17664
   H       -0.36216        -6.46820         3.19487
   H       -0.17474        -3.44325         2.73653
   H       -1.37756        -1.90943         4.94165
   H        1.37572        -1.60278         4.01728
   H        0.10755        -0.63272         3.64298
   H       -0.21568        -0.02865         6.09138
   H        1.13158        -1.10275         6.50465
   H       -1.77051        -1.55730         7.30745
   H       -0.56477        -0.83491         8.37942
   H        0.55050        -2.87650         8.71812
   H       -2.14091        -3.77940         8.03935
   H       -1.71842        -3.06528         9.45853
   H        1.70030        -6.69237         7.86169
   H       -0.30503        -5.07822         9.50623
   H       -0.91197        -6.19403        11.47914
   H        3.50989        -8.62863        12.09472
   H       -0.86183        -9.17057        16.50568
   H        1.38876       -10.24386        17.27395
   H       -2.49512        -7.82645        14.67737
   H       -2.34114        -7.81437        11.62995
   H       -4.67050        -7.82427        11.63516
   H       -5.14979        -5.32366        17.41766
   H       -7.28896        -5.68617        18.57936
   H       -9.15031        -6.82429        17.45070
   H       -8.91872        -7.63744        15.14767
*
