# ORCA input file
# SCF done       -205.926351664952          0.000676240400
! CAM-B3LYP def2-SVP def2/J RIJCOSX Grid4 TightSCF
%maxcore 5000
%tddft
    Mode sTDDFT
    Ethresh 5.0
    maxcore 5000
end

%pal
  nprocs 6
  end
* xyz 0 1
   C       -5.61070         2.40250        -1.66360
   C       -6.00039         2.42476        -2.99439
   C       -6.61100         1.32515        -3.58073
   C       -6.85893         0.17302        -2.84973
   C       -6.47766         0.14059        -1.51868
   C       -5.84472         1.25461        -0.92266
   C       -5.53193         0.93100         0.46305
   C       -5.05783         1.80613         1.40329
   C       -4.79559         3.16991         1.15052
   N       -4.56228         4.28561         1.01625
   C       -4.81182         1.50391         2.75982
   N       -4.59620         1.34294         3.87616
   C       -5.83168        -0.48648         0.64249
   C       -6.62526        -0.89902        -0.51066
   C       -7.54366        -1.91190        -0.55246
   C       -7.86213        -2.75357         0.53436
   N       -8.21097        -3.43869         1.38618
   C       -8.36223        -2.18173        -1.67000
   N       -9.04942        -2.45054        -2.54880
   C       -5.33368        -1.24926         1.66352
   C       -5.22028        -2.65506         1.74645
   C       -5.21384        -3.59792         0.73710
   C       -5.02038        -4.88727         1.30837
   C       -4.88053        -4.65594         2.74524
   C       -4.97959        -3.34512         3.01556
   F       -4.67851        -5.63958         3.62742
   C       -5.02919        -6.10357         0.66031
   C       -4.89260        -7.40179         1.21130
   C       -5.01494        -8.34143         0.20132
   C       -5.23433        -7.62601        -1.06363
   C       -5.23708        -6.31746        -0.77972
   F       -5.40302        -5.31871        -1.65384
   C       -4.95533        -9.73634         0.36510
   C       -5.10544       -10.63928        -0.64998
   C       -5.07014       -12.03469        -0.49114
   S       -4.74505       -12.77048         1.05491
   C       -4.81851       -14.36886         0.36807
   C       -5.08694       -14.31240        -1.00472
   C       -5.25352       -13.01263        -1.48011
   C       -5.57531       -12.71632        -2.91036
   S       -7.01213       -11.56494        -3.08272
   C       -5.85977       -13.98183        -3.71595
   C       -4.88504       -15.09148        -3.34416
   C       -5.12779       -15.51211        -1.89703
   C       -4.63126       -15.52649         1.14333
   C       -4.32177       -15.53207         2.47444
   C       -4.12568       -16.69195         3.24511
   C       -3.73516       -16.72419         4.57416
   C       -3.61472       -18.07152         4.99411
   C       -3.98557       -18.87378         3.81990
   C       -4.28271       -18.07672         2.78461
   F       -4.01858       -20.20936         3.81963
   C       -3.20961       -18.56134         6.21926
   C       -3.04735       -19.91735         6.60984
   C       -2.57840       -19.95861         7.91102
   C       -2.44612       -18.58125         8.39160
   C       -2.82142       -17.77100         7.39032
   F       -2.85408       -16.43391         7.41762
   C       -2.22377       -21.08487         8.68250
   C       -2.42496       -22.38227         8.30620
   C       -2.10107       -23.52106         9.07656
   C       -1.13427       -23.65892        10.03931
   C       -1.14335       -24.68702        11.07374
   C       -1.90038       -25.82818        11.10969
   C       -2.80303       -26.25603        10.11304
   N       -3.54945       -26.68098         9.35064
   C       -1.85129       -26.77684        12.15380
   N       -1.86728       -27.58864        12.96512
   C       -0.18958       -24.26837        12.09337
   C        0.49037       -23.11666        11.63728
   C        1.44154       -22.49682        12.43078
   C        1.71536       -23.03542        13.67896
   C        1.05732       -24.17292        14.12436
   C        0.10027       -24.79976        13.34035
   C        0.02238       -22.80847        10.29417
   C        0.71166       -22.06887         9.37007
   C        1.88602       -21.34461         9.66226
   N        2.83406       -20.72408         9.84522
   C        0.39553       -22.00382         7.99685
   N        0.23317       -21.94314         6.86251
   H       -5.13023         3.26290        -1.22790
   H       -5.81943         3.31168        -3.58212
   H       -6.89620         1.36354        -4.62089
   H       -7.32482        -0.67858        -3.31824
   H       -4.90219        -0.72060         2.50420
   H       -5.28922        -3.40606        -0.31527
   H       -4.93096        -2.86398         3.97259
   H       -4.73016        -7.61648         2.24926
   H       -5.37487        -8.07481        -2.02661
   H       -4.79221       -10.10191         1.37176
   H       -5.27537       -10.27622        -1.65203
   H       -4.75245       -12.15259        -3.36240
   H       -7.88595       -12.32924        -2.43199
   H       -5.79871       -13.74843        -4.77937
   H       -6.87753       -14.32238        -3.50781
   H       -3.85876       -14.73582        -3.45680
   H       -5.02342       -15.94586        -4.00718
   H       -4.37152       -16.23461        -1.58547
   H       -6.10572       -15.99777        -1.81379
   H       -4.74129       -16.46788         0.62511
   H       -4.20059       -14.58399         2.98389
   H       -3.53723       -15.86632         5.18629
   H       -4.58838       -18.38623         1.80511
   H       -3.23186       -20.76080         5.97567
   H       -2.10846       -18.29926         9.36994
   H       -1.79246       -20.88060         9.65573
   H       -2.97525       -22.57106         7.39541
   H       -2.74705       -24.37397         8.91184
   H        1.95397       -21.60859        12.09869
   H        2.45028       -22.56049        14.31063
   H        1.28864       -24.57711        15.09792
   H       -0.40406       -25.67852        13.70653
*
