# ORCA input file
# SCF done       -203.929019807395          0.000939053007
! CAM-B3LYP def2-SVP def2/J RIJCOSX Grid4 TightSCF
%maxcore 5000
%tddft
    Mode sTDDFT
    Ethresh 5.0
    maxcore 5000
end

%pal
  nprocs 6
  end
* xyz 0 1
   C       -2.50937         2.27765        -2.59227
   C       -1.72151         2.19430        -3.73061
   C       -1.71153         1.04820        -4.51308
   C       -2.49778        -0.04602        -4.18493
   C       -3.29161         0.02704        -3.05231
   C       -3.29423         1.18846        -2.24700
   C       -4.19001         0.97556        -1.11783
   C       -4.56334         1.92083        -0.20041
   C       -4.11530         3.25955        -0.21933
   N       -3.79285         4.35999        -0.17401
   C       -5.47476         1.72518         0.85952
   N       -6.20925         1.64971         1.73881
   C       -4.60091        -0.42455        -1.16473
   C       -4.22345        -0.93278        -2.47961
   C       -4.81974        -1.95789        -3.16143
   C       -5.90774        -2.71798        -2.68180
   N       -6.82355        -3.34192        -2.38378
   C       -4.47505        -2.32933        -4.47871
   N       -4.23168        -2.68298        -5.54278
   C       -5.13161        -1.10409        -0.10167
   C       -5.19198        -2.49854         0.11274
   C       -4.43117        -3.50648        -0.44991
   C       -4.81028        -4.74859         0.12650
   C       -5.84901        -4.42187         1.10418
   C       -6.07163        -3.09884         1.11869
   F       -6.45699        -5.34303         1.85706
   C       -4.34253        -6.00618        -0.19671
   C       -4.72397        -7.25615         0.34344
   C       -4.02157        -8.26716        -0.30016
   C       -3.14631        -7.64451        -1.29992
   C       -3.34144        -6.32082        -1.22533
   F       -2.73124        -5.39079        -1.96636
   C       -4.13496        -9.63676        -0.02613
   C       -3.45410       -10.63060        -0.68212
   C       -3.56391       -11.99197        -0.38765
   S       -4.57190       -12.63724         0.89379
   C       -4.12043       -14.29951         0.59927
   C       -3.21322       -14.35180        -0.47883
   C       -2.91744       -13.06520        -1.01059
   N       -2.04282       -13.21380        -2.03200
   C       -1.77748       -14.55446        -2.16401
   N       -0.88360       -14.98225        -3.16688
   O       -0.39911       -14.10276        -3.86103
   O       -0.65910       -16.16813        -3.26699
   C       -2.47585       -15.29087        -1.22858
   C       -4.63298       -15.33131         1.38675
   C       -4.35024       -16.69047         1.29286
   C       -5.06938       -17.37811         2.29446
   C       -5.82336       -16.34527         3.01459
   C       -5.57464       -15.13583         2.48972
   F       -6.62923       -16.61042         4.04367
   C       -5.07005       -18.73611         2.56161
   C       -5.78018       -19.43968         3.56417
   C       -5.47980       -20.79150         3.47137
   C       -4.53625       -20.97220         2.36356
   C       -4.30726       -19.75942         1.83946
   F       -3.49964       -19.47915         0.81081
   C       -6.00639       -21.79984         4.29608
   C       -5.72344       -23.13452         4.17788
   C       -6.27921       -24.09643         5.03669
   C       -6.15951       -25.45943         4.91321
   C       -6.36368       -26.41680         5.99179
   C       -7.03684       -26.20998         7.16661
   C       -7.70657       -25.02080         7.52521
   N       -8.27643       -24.08945         7.88043
   C       -7.18879       -27.18701         8.17380
   N       -7.34792       -27.93153         9.03258
   C       -5.70737       -27.65335         5.58557
   C       -5.24717       -27.51136         4.25644
   C       -4.56268       -28.54075         3.63248
   C       -4.34235       -29.71351         4.33977
   C       -4.80252       -29.85914         5.64047
   C       -5.48854       -28.83467         6.27626
   C       -5.65482       -26.20188         3.76825
   C       -5.76171       -25.83882         2.45102
   C       -5.28061       -26.62247         1.38062
   N       -4.88279       -27.20222         0.47360
   C       -6.46834       -24.70740         1.98729
   N       -7.08077       -23.83993         1.55173
   H       -2.49772         3.17299        -1.99303
   H       -1.10337         3.03475        -4.00668
   H       -1.08255         1.00424        -5.38891
   H       -2.47489        -0.93452        -4.79468
   H       -5.49748        -0.51172         0.72748
   H       -3.64210        -3.38453        -1.16587
   H       -6.77714        -2.55523         1.71563
   H       -5.44603        -7.39779         1.12337
   H       -2.47677        -8.15641        -1.96189
   H       -4.81680        -9.92014         0.76610
   H       -2.77964       -10.37175        -1.48655
   H       -1.62896       -12.51424        -2.63003
   H       -2.43826       -16.35571        -1.12916
   H       -3.69375       -17.14960         0.58381
   H       -5.97420       -14.18916         2.79672
   H       -6.44616       -18.99686         4.27879
   H       -4.12177       -21.90266         2.03169
   H       -6.71213       -21.48607         5.05527
   H       -5.02180       -23.45439         3.42213
   H       -6.78062       -23.71349         5.91514
   H       -4.19514       -28.43796         2.62443
   H       -3.80448       -30.52192         3.86884
   H       -4.62247       -30.78170         6.17063
   H       -5.83435       -28.96457         7.28842
*
