# ORCA input file
# SCF done       -175.851214693657          0.000450714201
! CAM-B3LYP def2-SVP def2/J RIJCOSX Grid4 TightSCF
%maxcore 5000
%tddft
    Mode sTDDFT
    Ethresh 5.0
    maxcore 5000
end

%pal
  nprocs 6
  end
* xyz 0 1
   C       -6.23337         2.48375         2.55089
   C       -6.72180         2.61926         1.25984
   C       -7.25852         1.53538         0.57968
   C       -7.33236         0.28496         1.17548
   C       -6.84932         0.13739         2.46463
   C       -6.29028         1.23761         3.15518
   C       -5.84256         0.79333         4.46899
   C       -5.33716         1.59359         5.46277
   C       -5.17780         2.99031         5.35489
   N       -5.02188         4.12783         5.33982
   C       -4.94252         1.14410         6.73809
   N       -4.60712         0.83729         7.79380
   C       -6.02516        -0.64823         4.50665
   C       -6.83449        -1.01548         3.35123
   C       -7.65546        -2.10485         3.26036
   C       -7.87488        -3.00769         4.32243
   N       -8.17038        -3.69855         5.19071
   C       -8.48725        -2.37136         2.15423
   N       -9.18249        -2.63235         1.27894
   C       -5.43350        -1.49394         5.40479
   C       -5.24642        -2.88016         5.24838
   N       -4.87355        -3.67371         6.34865
   C       -4.75597        -4.91243         5.86170
   N       -4.50359        -6.19868         6.14510
   C       -4.60120        -6.87161         4.90820
   N       -4.88836        -6.06343         3.90982
   C       -5.00663        -4.83828         4.46158
   N       -5.31230        -3.58072         4.12272
   C       -4.42981        -8.27658         4.83251
   C       -4.43196        -8.95107         3.65460
   C       -4.33209       -10.35457         3.50187
   N       -4.37062       -11.24177         4.56177
   C       -4.28594       -12.50421         4.07124
   C       -4.28216       -13.84696         4.42937
   C       -4.14210       -14.56666         3.23518
   N       -4.06150       -13.68239         2.17834
   C       -4.15877       -12.41627         2.65991
   C       -4.19714       -11.07125         2.30561
   C       -4.07692       -15.96701         3.02622
   C       -4.27069       -16.90383         3.98602
   C       -4.17300       -18.29570         3.73487
   N       -4.46416       -19.22872         4.75185
   C       -4.26066       -20.42978         4.18973
   N       -4.28585       -21.75587         4.36994
   C       -3.85611       -22.29990         3.14386
   N       -3.60019       -21.36612         2.23931
   C       -3.84434       -20.19742         2.84901
   N       -3.81150       -18.86922         2.60645
   C       -3.71371       -23.69029         2.97499
   C       -3.10442       -24.24336         1.88848
   C       -2.96702       -25.63224         1.72261
   C       -2.16794       -26.25234         0.79339
   C       -2.31549       -27.62045         0.32688
   C       -3.03106       -28.62849         0.92090
   C       -3.72704       -28.52076         2.14201
   N       -4.30917       -28.50954         3.13252
   C       -3.13516       -29.93722         0.40637
   N       -3.26392       -31.02017         0.04698
   C       -1.55644       -27.72512        -0.91399
   C       -0.86571       -26.51096        -1.13197
   C       -0.07980       -26.33827        -2.25842
   C        0.01476       -27.38280        -3.16651
   C       -0.65419       -28.57848        -2.95002
   C       -1.44407       -28.76337        -1.82461
   C       -1.12039       -25.63236         0.00031
   C       -0.34385       -24.56902         0.38393
   C        0.68873       -24.02776        -0.40862
   N        1.52823       -23.54088        -1.02199
   C       -0.37609       -23.99682         1.67396
   N       -0.29391       -23.56159         2.73311
   H       -5.81651         3.33594         3.06219
   H       -6.67887         3.58431         0.77826
   H       -7.62451         1.66485        -0.42745
   H       -7.74589        -0.55264         0.63763
   H       -4.98862        -1.07224         6.29525
   H       -4.82002        -3.35099         7.30139
   H       -4.29918        -6.62323         7.03433
   H       -4.29803        -8.78728         5.77734
   H       -4.52258        -8.36856         2.75020
   H       -4.51163       -10.98252         5.52146
   H       -4.35635       -14.26695         5.41157
   H       -3.96284       -13.95778         1.21620
   H       -4.13211       -10.63522         1.32948
   H       -3.86270       -16.31737         2.02632
   H       -4.51491       -16.61259         4.99737
   H       -4.75871       -19.00498         5.68773
   H       -4.49803       -22.28455         5.20000
   H       -4.05149       -24.32494         3.78387
   H       -2.73692       -23.56587         1.13158
   H       -3.60065       -26.25366         2.34076
   H        0.44116       -25.41187        -2.43851
   H        0.61827       -27.26051        -4.05296
   H       -0.56322       -29.37936        -3.66790
   H       -1.95816       -29.69846        -1.67443
*
