# ORCA input file
# SCF done       -209.161944738760          0.000590038118
! CAM-B3LYP def2-SVP def2/J RIJCOSX Grid4 TightSCF
%maxcore 5000
%tddft
    Mode sTDDFT
    Ethresh 5.0
    maxcore 5000
end

%pal
  nprocs 6
  end
* xyz 0 1
   C        2.55218        -8.86392        -2.47610
   C        1.76148        -9.81265        -3.07431
   C        2.14372       -11.15687        -3.25323
   N        2.39484       -12.26664        -3.40326
   C        0.51676        -9.51466        -3.66585
   N       -0.47274        -9.28729        -4.20266
   C        3.96742        -9.02658        -2.15155
   C        4.55671        -7.75259        -2.04681
   C        5.90417        -7.59746        -1.79456
   C        6.68023        -8.73908        -1.63090
   C        6.09833       -10.00873        -1.72261
   C        4.74115       -10.16187        -1.98813
  Cl        7.06761       -11.40839        -1.50697
  Cl        8.36067        -8.58689        -1.31402
   C        3.52172        -6.71477        -2.23873
   O        3.66717        -5.51465        -2.27059
   C        2.23976        -7.46072        -2.33407
   C        1.05904        -6.78374        -2.22384
   C       -0.23224        -7.26417        -1.88931
   C       -1.36393        -6.54144        -2.22056
   C       -2.66203        -6.95559        -1.97566
   C       -2.94991        -8.20732        -1.27942
   C       -2.00007        -9.03813        -0.79274
   S       -0.32081        -8.75477        -0.95773
   C       -4.36851        -8.30148        -1.24320
   C       -4.94398        -7.19100        -1.87283
   C       -6.35649        -7.25652        -1.84782
   C       -6.79692        -8.37933        -1.22256
   S       -5.53155        -9.40330        -0.63605
   C       -3.88782        -6.32914        -2.33872
   C       -3.96787        -5.10402        -3.01541
   C       -5.11876        -4.49715        -3.43903
   C       -5.17530        -3.25728        -4.10925
   C       -6.43484        -2.76062        -4.54839
   C       -6.55962        -1.51287        -5.25581
   N       -7.76885        -1.11059        -5.66127
   C       -8.83103        -1.84098        -5.41139
   C       -8.70230        -3.07046        -4.69893
   N       -7.52417        -3.49147        -4.29381
   C       -9.84393        -3.85777        -4.41012
   N      -10.77813        -4.47947        -4.17941
   C      -10.09823        -1.38849        -5.85281
   N      -11.13634        -1.05018        -6.19941
   C       -5.45863        -0.66687        -5.53461
   C       -4.20168        -1.16240        -5.09628
   C       -4.06488        -2.43104        -4.41080
   N       -2.79025        -2.68726        -4.12955
   S       -1.85180        -1.48951        -4.65956
   N       -3.01943        -0.57845        -5.26910
   C       -5.63432         0.58490        -6.20851
   C       -4.61110         1.52393        -6.26925
   C       -4.67705         2.75594        -6.89547
   C       -5.88857         3.18148        -7.58613
   C       -7.00703         2.42136        -7.66206
   S       -7.20098         0.88496        -6.93260
   C       -5.62853         4.49046        -8.07989
   C       -4.34517         4.88273        -7.70248
   C       -4.03138         6.18337        -8.15637
   C       -5.06416         6.72978        -8.84910
   S       -6.45053         5.69815        -8.97921
   C       -3.71388         3.81696        -6.96597
   C       -2.42671         3.95469        -6.44291
   C       -1.61215         3.01479        -5.84648
   C       -0.38673         3.38577        -5.29552
   C        0.50662         2.52298        -4.68139
   C        1.73470         2.87373        -4.00592
   C        2.28724         4.12306        -3.87104
   C        3.49748         4.38327        -3.19536
   N        4.47496         4.66742        -2.66434
   C        1.74380         5.31973        -4.38125
   N        1.36693         6.33632        -4.76133
   C        2.30796         1.63818        -3.46620
   C        1.47281         0.56371        -3.82088
   C        0.33637         1.07594        -4.60693
   O       -0.55363         0.40148        -5.11447
   C        1.75689        -0.73416        -3.45171
   C        2.90262        -0.97662        -2.70094
   C        3.73513         0.08890        -2.34217
   C        3.44820         1.39807        -2.72014
  Cl        5.14710        -0.21342        -1.41540
  Cl        3.28937        -2.58774        -2.22969
   H        6.34361        -6.61479        -1.72764
   H        4.32293       -11.15336        -2.05166
   H        1.14032        -5.70799        -2.34951
   H       -1.20413        -5.61777        -2.76022
   H       -2.23561        -9.94721        -0.26246
   H       -7.02912        -6.52795        -2.26050
   H       -7.81346        -8.68144        -1.06296
   H       -3.03793        -4.59681        -3.22833
   H       -6.07471        -4.97201        -3.28443
   H       -3.69851         1.23914        -5.77023
   H       -7.89537         2.76567        -8.16912
   H       -3.09986         6.69147        -7.98591
   H       -5.10767         7.69860        -9.30687
   H       -2.01328         4.95427        -6.53479
   H       -1.89595         1.97723        -5.80406
   H       -0.13479         4.43792        -5.32431
   H        1.10794        -1.54603        -3.73953
   H        4.11887         2.18776        -2.42371
*
