# ORCA input file
# SCF done       -209.480218182926          0.000567330734
! CAM-B3LYP def2-SVP def2/J RIJCOSX Grid4 TightSCF
%maxcore 5000
%tddft
    Mode sTDDFT
    Ethresh 5.0
    maxcore 5000
end

%pal
  nprocs 6
  end
* xyz 0 1
   C        2.63597        -2.42002         3.21634
   C        1.75107        -2.76133         4.20563
   C        2.10448        -2.87959         5.56493
   N        2.35347        -3.01121         6.67764
   C        0.36639        -2.93016         3.98465
   N       -0.77361        -2.99893         3.87484
   C        3.99513        -1.92308         3.42109
   C        4.40124        -1.23214         2.26422
   C        5.63388        -0.61725         2.18563
   C        6.48553        -0.70386         3.28058
   C        6.09301        -1.40123         4.42866
   C        4.84525        -2.01058         4.50973
  Cl        7.16333        -1.51322         5.76649
  Cl        8.02831         0.04794         3.21986
   C        3.33464        -1.31198         1.23910
   O        3.31441        -0.79517         0.14724
   C        2.31410        -2.22261         1.82140
   C        1.35534        -2.78105         1.02610
   C        0.59383        -3.94868         1.25442
   C       -0.54293        -4.30766         0.55703
   C       -1.00855        -5.56481         1.03815
   C       -0.04152        -5.96483         2.05620
   C        0.90971        -5.02665         2.19457
   F       -0.09896        -7.12904         2.71501
   C       -2.10708        -6.28719         0.62054
   C       -2.56574        -7.53718         1.09884
   C       -3.65898        -7.93818         0.34754
   C       -3.93100        -6.89755        -0.65250
   C       -3.02366        -5.92881        -0.47551
   F       -2.91783        -4.79946        -1.18025
   C       -4.39262        -9.13525         0.43889
   C       -4.20374       -10.07420         1.41469
   C       -4.86445       -11.31200         1.46750
   S       -5.91238       -11.85104         0.19019
   C       -6.20381       -13.37671         0.98355
   C       -5.56432       -13.41194         2.23247
   C       -4.78614       -12.27984         2.47853
   C       -3.94216       -12.09730         3.71531
   N       -2.64974       -11.51889         3.37474
   C       -3.82828       -13.43083         4.46882
   C       -5.19998       -14.06704         4.61366
   C       -5.73743       -14.51519         3.24454
   N       -7.13339       -14.92471         3.29492
   C       -6.92270       -14.32454         0.22739
   C       -7.07310       -15.65871         0.47786
   C       -7.70760       -16.56055        -0.39661
   C       -7.77842       -17.93086        -0.20561
   C       -8.43007       -18.52726        -1.31206
   C       -8.78268       -17.40711        -2.19639
   C       -8.36164       -16.24737        -1.67350
   F       -9.43012       -17.56288        -3.35572
   C       -8.65391       -19.86664        -1.55693
   C       -9.25090       -20.46788        -2.69858
   C       -9.21463       -21.84449        -2.55809
   C       -8.58838       -22.15498        -1.26974
   C       -8.26915       -20.98544        -0.69447
   F       -7.67779       -20.82338         0.49642
   C       -9.67546       -22.77602        -3.50914
   C       -9.56956       -24.13391        -3.38636
   C      -10.01897       -25.00663        -4.39324
   C       -9.90569       -26.37365        -4.35217
   C      -10.33425       -27.31174        -5.36921
   C      -10.97736       -27.02530        -6.54616
   C      -11.36521       -27.99670        -7.49353
   N      -11.70818       -28.73149        -8.30595
   C      -11.35337       -25.73949        -6.98877
   N      -11.69724       -24.73408        -7.42442
   C       -9.96570       -28.65265        -4.91626
   C       -9.35070       -28.55514        -3.65648
   C       -9.28735       -27.13681        -3.24208
   O       -8.81919       -26.71284        -2.20690
   C       -8.89742       -29.66738        -2.97763
   C       -9.05881       -30.91286        -3.57142
   C       -9.66671       -31.02021        -4.82721
   C      -10.12374       -29.89600        -5.50652
  Cl       -9.85675       -32.56493        -5.55320
  Cl       -8.50847       -32.32247        -2.76039
   H        5.92711        -0.08291         1.29586
   H        4.57335        -2.54204         5.40742
   H        1.22627        -2.30810         0.05754
   H       -1.03011        -3.71337        -0.19105
   H        1.77559        -5.07853         2.82493
   H       -2.11428        -8.08621         1.90043
   H       -4.72370        -6.93157        -1.37414
   H       -5.14415        -9.31451        -0.32125
   H       -3.49025        -9.89827         2.20645
   H       -4.44773       -11.36635         4.36401
   H       -2.12523       -12.15009         2.77794
   H       -2.10610       -11.36018         4.21548
   H       -3.38248       -13.25468         5.45008
   H       -3.16939       -14.10408         3.91250
   H       -5.89236       -13.34138         5.05078
   H       -5.15296       -14.93191         5.27894
   H       -5.15609       -15.38843         2.91209
   H       -7.72217       -14.14290         3.56008
   H       -7.25897       -15.65798         3.98356
   H       -7.32437       -13.93222        -0.69816
   H       -6.67620       -16.08090         1.38534
   H       -7.38478       -18.46194         0.63840
   H       -8.48148       -15.27095        -2.09866
   H       -9.64901       -19.93543        -3.54026
   H       -8.42500       -23.13688        -0.87282
   H      -10.12789       -22.36585        -4.40478
   H       -9.11873       -24.56636        -2.50711
   H      -10.47397       -24.54953        -5.26272
   H       -8.42954       -29.56838        -2.01089
   H      -10.58606       -30.02010        -6.47183
*
