# ORCA input file
# SCF done       -195.960494296269          0.000919999792
! CAM-B3LYP def2-SVP def2/J RIJCOSX Grid4 TightSCF
%maxcore 5000
%tddft
    Mode sTDDFT
    Ethresh 5.0
    maxcore 5000
end

%pal
  nprocs 6
  end
* xyz 0 1
   C        0.94084        -1.56974        -0.34125
   C        0.97414        -2.70718        -1.10233
   C        0.62241        -2.75016        -2.46909
   N        0.34027        -2.85203        -3.57646
   C        1.43789        -3.96119        -0.65464
   N        1.83405        -5.00045        -0.37156
   C        0.70378        -0.22485        -0.86523
   C        1.19992         0.71901         0.05292
   C        1.15282         2.07444        -0.20382
   C        0.58719         2.50029        -1.39930
   C        0.07422         1.56771        -2.30988
   C        0.13121         0.20240        -2.05151
  Cl       -0.63793         2.10922        -3.77372
  Cl        0.51495         4.17661        -1.75800
   C        1.71990         0.01903         1.24554
   O        2.26644         0.49489         2.21142
   C        1.37951        -1.41800         1.03228
   C        1.45437        -2.27236         2.08942
   C        0.88826        -3.56150         2.24835
   C       -0.19592        -4.10595         1.60208
   C       -0.39949        -5.44017         2.07885
   C        0.62791        -5.64166         3.10116
   C        1.38032        -4.53779         3.22548
   F        0.75634        -6.77737         3.79262
   C       -1.29347        -6.36587         1.60581
   C       -1.41662        -7.74325         1.95407
   C       -2.37338        -8.32657         1.15608
   C       -2.93097        -7.29200         0.26988
   C       -2.28679        -6.15089         0.54248
   F       -2.49036        -4.96631        -0.04206
   C       -2.71191        -9.70134         1.14165
   C       -3.60774       -10.26372         0.29216
   C       -3.87575       -11.65683         0.20965
   C       -4.72100       -12.29171        -0.68624
   C       -5.49138       -11.52369        -1.70876
   O       -6.68530       -11.48321        -1.75620
   O       -4.73769       -10.83235        -2.58433
   C       -4.73979       -13.70584        -0.53205
   C       -3.90239       -14.10489         0.48709
   S       -3.12369       -12.81554         1.27884
   C       -5.43426       -14.65586        -1.36933
   C       -4.95204       -15.88087        -1.72926
   C       -5.89065       -16.50505        -2.61970
   C       -7.01003       -15.55927        -2.71069
   C       -6.75038       -14.45955        -1.98843
   F       -8.11187       -15.80408        -3.42503
   C       -5.74284       -17.67323        -3.31622
   C       -6.62303       -18.23934        -4.29412
   C       -6.04035       -19.36784        -4.82474
   C       -4.74587       -19.57533        -4.16047
   C       -4.58960       -18.57988        -3.27714
   F       -3.54537       -18.39864        -2.46129
   C       -6.58128       -20.16446        -5.86067
   C       -5.93497       -21.20948        -6.45148
   C       -6.51052       -21.93451        -7.51636
   C       -5.88837       -22.94757        -8.19455
   C       -6.42472       -23.71031        -9.30697
   C       -7.67801       -23.61181        -9.85138
   C       -8.13357       -24.39026       -10.93785
   N       -8.57064       -24.98455       -11.81682
   C       -8.69837       -22.73780        -9.41828
   N       -9.58018       -22.06277        -9.12673
   C       -5.38050       -24.62989        -9.75445
   C       -4.24708       -24.46696        -8.93917
   C       -4.50877       -23.42643        -7.92327
   O       -3.74186       -23.05300        -7.06244
   C       -3.09764       -25.20609        -9.13151
   C       -3.07520       -26.13323       -10.16563
   C       -4.19914       -26.30276       -10.98352
   C       -5.35532       -25.55620       -10.78481
  Cl       -4.15866       -27.44993       -12.25980
  Cl       -1.66468       -27.07101       -10.44081
   H        1.54738         2.78322         0.50692
   H       -0.27819        -0.48727        -2.77153
   H        1.98394        -1.87635         2.95181
   H       -0.81912        -3.61585         0.88025
   H        2.21447        -4.38112         3.88074
   H       -0.82722        -8.24114         2.69863
   H       -3.70691        -7.43304        -0.45592
   H       -2.17919       -10.33494         1.83980
   H       -4.16026        -9.63531        -0.39252
   H       -3.78836       -10.97427        -2.46978
   H       -3.73741       -15.11037         0.81979
   H       -4.00356       -16.29824        -1.45554
   H       -7.37296       -13.59735        -1.85571
   H       -7.57071       -17.82476        -4.57765
   H       -4.06630       -20.38138        -4.35309
   H       -7.56853       -19.88846        -6.21239
   H       -4.94633       -21.49378        -6.12691
   H       -7.51053       -21.64473        -7.81259
   H       -2.23992       -25.06412        -8.49316
   H       -6.19880       -25.71476       -11.43627
*
