# ORCA input file
# SCF done       -189.388879410319          0.000204644132
! CAM-B3LYP def2-SVP def2/J RIJCOSX Grid4 TightSCF
%maxcore 5000
%tddft
    Mode sTDDFT
    Ethresh 5.0
    maxcore 5000
end

%pal
  nprocs 6
  end
* xyz 0 1
   C       -2.75019        -0.38683        -0.66825
   C       -3.42479        -0.93335         0.38342
   S       -2.40038        -1.62617         1.58868
   C       -1.02270        -1.19729         0.66715
   C       -1.36274        -0.53770        -0.50759
   C       -0.13365        -0.17869        -1.22346
   O       -0.00319         0.44451        -2.25105
   C        0.97039        -0.79751        -0.41806
   C        0.40572        -1.28309         0.83102
   C        1.02849        -1.54952         2.02497
   C        0.28128        -1.91981         3.16372
   N       -0.32183        -2.21712         4.09292
   C        2.40214        -1.39230         2.27644
   N        3.51028        -1.24504         2.54011
   C        2.20874        -0.87425        -0.97456
   C        3.30722        -1.68456        -0.61173
   C        3.32570        -2.86516         0.11390
   C        4.60620        -3.39222         0.23212
   C        5.58481        -2.60879        -0.41786
   S        4.91558        -1.24665        -1.18735
   C        6.84700        -3.21102        -0.21438
   C        6.67144        -4.36860         0.56598
   C        5.25740        -4.51199         0.88094
   C        4.67515        -5.47382         1.65611
   C        3.28541        -5.48007         1.89645
   N        2.15258        -5.47275         2.07412
   C        5.42964        -6.50369         2.25343
   N        6.05937        -7.33737         2.72752
   C        7.86045        -5.03960         0.82585
   C        8.95393        -4.40856         0.24874
   S        8.48759        -2.95514        -0.62282
   C       10.32019        -4.80771         0.29991
   C       10.72856        -5.97904         0.89934
   C       12.04594        -6.42062         0.97510
   C       13.12383        -5.67980         0.30405
   C       12.95486        -4.49952        -0.33051
   S       11.44787        -3.69260        -0.45770
   C       14.29364        -6.47034         0.47099
   C       13.98027        -7.61950         1.19679
   C       15.10706        -8.44743         1.39601
   C       16.22017        -7.91707         0.82562
   S       15.95258        -6.40048         0.03275
   C       12.58339        -7.59520         1.54740
   C       11.99148        -8.60735         2.33626
   C       10.80077        -8.56645         2.99621
   C       10.29005        -9.63235         3.77334
   C       10.82449       -10.89987         3.98201
   C       10.03928       -11.66543         4.83261
   C        8.88645       -10.98870         5.28075
   S        8.77872        -9.40706         4.64241
   C        8.17338       -11.84415         6.14791
   C        8.87476       -13.07120         6.25304
   C       10.06191       -12.99806         5.42193
   C       11.00849       -13.95873         5.21841
   C       12.12382       -13.73219         4.38444
   N       13.03318       -13.54529         3.71059
   C       10.95979       -15.24318         5.80272
   N       10.95757       -16.30027         6.24541
   C        8.26705       -13.97677         7.11065
   C        7.10111       -13.46988         7.67100
   S        6.76455       -11.82428         7.09580
   C        6.16180       -13.99518         8.57968
   C        6.11752       -15.17698         9.26532
   C        5.02397       -15.52723        10.16834
   C        3.88451       -14.82745        10.47856
   C        2.94809       -15.35843        11.39132
   N        2.18080       -15.78134        12.13235
   C        3.50006       -13.57073         9.97509
   N        3.11771       -12.55052         9.61034
   C        5.35090       -16.81442        10.71622
   C        6.55707       -17.28122        10.21803
   C        6.91513       -18.53908        10.72999
   C        5.97145       -18.99487        11.60268
   S        4.63971       -17.91646        11.82023
   C        7.10950       -16.29128         9.28345
   O        8.15541       -16.37842         8.67765
   H       -3.21781         0.09704        -1.50548
   H       -4.48641        -0.96611         0.53274
   H        2.34175        -0.26001        -1.86055
   H        2.43573        -3.33566         0.49038
   H        7.92626        -5.93863         1.40916
   H        9.95473        -6.61005         1.30549
   H       13.76887        -3.97228        -0.80227
   H       15.10293        -9.38249         1.92579
   H       17.21147        -8.32609         0.81696
   H       12.60068        -9.49406         2.45151
   H       10.20095        -7.66915         2.99005
   H       11.74041       -11.23467         3.53267
   H        8.63496       -14.96074         7.34165
   H        5.33332       -13.31947         8.76037
   H        7.81118       -19.07071        10.46882
   H        5.97437       -19.92010        12.14527
*
