# ORCA input file
# SCF done       -257.978718225685          0.000677181973
! CAM-B3LYP def2-SVP def2/J RIJCOSX Grid4 TightSCF
%maxcore 5000
%tddft
    Mode sTDDFT
    Ethresh 5.0
    maxcore 5000
end

%pal
  nprocs 6
  end
* xyz 0 1
   C        5.38340         0.42101         8.24629
   C        4.31795         0.70573         9.05408
   F        3.74975         1.92326         8.99552
   C        3.78416        -0.22914         9.95199
   C        4.34686        -1.47279        10.02441
   C        5.44653        -1.82103         9.21322
   C        5.97697        -0.85487         8.30886
   C        7.08561        -1.17689         7.49224
   C        7.64053        -2.42566         7.57563
   C        7.09362        -3.39340         8.46735
   C        6.02966        -3.10615         9.27322
   C        7.83757        -4.65956         8.32987
   O        7.69546        -5.68030         8.96096
   C        8.77502        -4.44041         7.18845
   C        8.78819        -3.01902         6.89526
   C        9.80399        -2.31821         6.30313
   C       11.02326        -2.89347         5.88558
   N       12.05577        -3.28502         5.57386
   C        9.77619        -0.92381         6.09679
   N        9.79089         0.20238         5.87453
   C        9.33581        -5.51273         6.57925
   C        9.97140        -5.60291         5.29236
   C       10.92872        -6.60279         5.07559
   C       11.57728        -6.74429         3.86444
   C       11.24935        -5.89281         2.81604
   C       10.28520        -4.88059         3.04217
   C        9.63475        -4.73395         4.24247
   N       10.15729        -4.10633         1.91030
   C        9.29445        -2.96583         1.77298
   C       11.04138        -4.50629         0.93978
   O       11.10969        -3.98318        -0.15153
   C       11.75880        -5.71108         1.47579
   C       12.62889        -6.47761         0.75229
   C       12.95384        -7.91475         1.05630
   O       12.56262        -8.62256         1.96000
   N       13.74587        -8.36742         0.03481
   C       14.25651        -9.70849        -0.03752
   C       14.01568        -7.35657        -0.86619
   C       13.34011        -6.17959        -0.46893
   C       13.55528        -5.01415        -1.19613
   C       14.38873        -5.05124        -2.29888
   C       15.01155        -6.22970        -2.71288
   C       14.82288        -7.40525        -1.97912
   C       15.87017        -6.24036        -3.90102
   C       16.78984        -5.21351        -4.11806
   C       17.64051        -5.21334        -5.20861
   C       17.57078        -6.25738        -6.12352
   C       16.59420        -7.26027        -5.92743
   C       15.76652        -7.28167        -4.82880
   N       16.61727        -8.13741        -6.99398
   C       15.76015        -9.27928        -7.15360
   C       17.53440        -7.74489        -7.93256
   O       17.73418        -8.35476        -8.96222
   C       18.23403        -6.53565        -7.37764
   C       19.33912        -5.95702        -7.93567
   C       20.32937        -5.11925        -7.17651
   O       20.32512        -4.76927        -6.01536
   N       21.37040        -4.86343        -8.03111
   C       22.53606        -4.10425        -7.67017
   C       21.13481        -5.41097        -9.27245
   C       19.89629        -6.09389        -9.26355
   C       19.44083        -6.64048       -10.45779
   C       20.23924        -6.56749       -11.58496
   C       21.49750        -5.95814       -11.56216
   C       21.93681        -5.33653       -10.38425
   C       22.37299        -5.97161       -12.72203
   C       23.73604        -5.94049       -12.58784
   C       24.64200        -5.94277       -13.64648
   C       24.20076        -5.98900       -15.03549
   C       22.89740        -6.04309       -15.40100
   S       21.59651        -6.04814       -14.28589
   C       25.39639        -5.96873       -15.80740
   C       26.51204        -5.90903       -14.96833
   C       27.71678        -5.88949       -15.70431
   C       27.48943        -5.93171       -17.04419
   S       25.81668        -5.99763       -17.47330
   C       26.05521        -5.89380       -13.59698
   C       26.76279        -5.83366       -12.38993
   C       28.11855        -5.73255       -12.21225
   C       28.79432        -5.69655       -10.98456
   C       28.38678        -5.70773        -9.66030
   C       29.34755        -5.73904        -8.57004
   C       30.71355        -5.86977        -8.65016
   C       31.57126        -5.89010        -7.53071
   N       32.33389        -5.91315        -6.67196
   C       31.49523        -6.02616        -9.81385
   N       32.23581        -6.16962       -10.68177
   C       28.61347        -5.65552        -7.31004
   C       27.23252        -5.61861        -7.60567
   C       27.04060        -5.64026        -9.06937
   O       25.94384        -5.58220        -9.60686
   C       26.26528        -5.56516        -6.63246
   C       26.68075        -5.53250        -5.29782
   C       28.06464        -5.55650        -5.01084
   C       29.04253        -5.62122        -5.99665
   S       28.36201        -5.50097        -3.29910
   C       26.64484        -5.44913        -2.99927
   C       25.88590        -5.47155        -4.12018
  Br       26.01653        -5.36874        -1.23314
   H        5.77069         1.16694         7.56994
   H        2.94262         0.05287        10.56460
   H        3.95326        -2.20988        10.70797
   H        7.46250        -0.42906         6.81239
   H        5.63646        -3.85165         9.94798
   H        9.23961        -6.44601         7.12637
   H       11.18437        -7.26016         5.89247
   H       12.31004        -7.52107         3.73493
   H        8.86508        -3.98856         4.36977
   H        8.25050        -3.25647         1.90549
   H        9.43525        -2.57053         0.76755
   H        9.55283        -2.19578         2.50391
   H       13.86863       -10.25223         0.82317
   H       15.34813        -9.70740        -0.00546
   H       13.92239       -10.19682        -0.95501
   H       13.07139        -4.09465        -0.91876
   H       14.54033        -4.15115        -2.87440
   H       15.33262        -8.31288        -2.26283
   H       16.85951        -4.41440        -3.39637
   H       18.35447        -4.41861        -5.33127
   H       15.02862        -8.05783        -4.69760
   H       15.91945        -9.99383        -6.34367
   H       16.01436        -9.74749        -8.10395
   H       14.71113        -8.97564        -7.16637
   H       22.52243        -3.97193        -6.58878
   H       22.52622        -3.12322        -8.15158
   H       23.43818        -4.63721        -7.97303
   H       18.49146        -7.14320       -10.50704
   H       19.89484        -7.02413       -12.50096
   H       22.86958        -4.79831       -10.35355
   H       24.13305        -5.93632       -11.58360
   H       22.58318        -6.08347       -16.43201
   H       28.70509        -5.84949       -15.28537
   H       28.21750        -5.92893       -17.83171
   H       26.15861        -5.86337       -11.49737
   H       28.75630        -5.68883       -13.08404
   H       29.86998        -5.65692       -11.10439
   H       25.21714        -5.55467        -6.88596
   H       30.08288        -5.64021        -5.72067
   H       24.81133        -5.44612        -4.11817
*
