# ORCA input file
# SCF done       -205.890670746357          0.000597095700
! CAM-B3LYP def2-SVP def2/J RIJCOSX Grid4 TightSCF
%maxcore 5000
%tddft
    Mode sTDDFT
    Ethresh 5.0
    maxcore 5000
end

%pal
  nprocs 6
  end
* xyz 0 1
   C       -1.23878         1.05691        -2.66881
   C       -1.04399         1.54471        -3.93769
   C       -0.20453         0.93966        -4.89653
   N        0.45567         0.50238        -5.72799
   C       -1.61542         2.70991        -4.48982
   N       -2.01961         3.64280        -5.02597
   C       -0.58265        -0.12964        -2.12884
   C       -0.97511        -0.28738        -0.77914
   C       -0.52308        -1.31296         0.01449
   C        0.36237        -2.23402        -0.55447
   C        0.74784        -2.07234        -1.90627
   C        0.29047        -1.03281        -2.70682
   S        1.84390        -3.32267        -2.41191
   C        1.77050        -4.03464        -0.82181
   C        0.96794        -3.37242         0.04464
  Br        2.76019        -5.58541        -0.45682
   C       -1.91129         0.79120        -0.40801
   O       -2.43472         0.92147         0.67952
   C       -2.07773         1.61704        -1.62358
   C       -2.90822         2.69386        -1.81305
   C       -3.74684         3.39595        -0.93390
   C       -3.97576         3.31529         0.43633
   C       -4.89321         4.25571         0.87533
   C       -5.39221         5.08269        -0.16976
   S       -4.71207         4.69255        -1.67855
   C       -6.31212         5.98953         0.37540
   C       -6.40866         5.75723         1.76840
   C       -5.51122         4.66136         2.11936
   C       -5.29870         4.14487         3.36490
   C       -4.40183         3.08696         3.63180
   N       -3.68792         2.23545         3.91406
   C       -5.95004         4.62463         4.51800
   N       -6.45472         4.98013         5.48565
   C       -7.29405         6.60406         2.40728
   C       -7.89775         7.50787         1.52386
   S       -7.33046         7.26913        -0.13191
   C       -8.82648         8.52523         1.75848
   C       -9.39720         8.90075         2.95733
   C      -10.30759         9.97155         3.12333
   C      -10.71594        10.16950         4.41135
   C      -10.15550         9.26065         5.32886
   S       -9.09621         8.14236         4.50495
   C      -10.31985         9.17160         6.70300
   C      -11.05919        10.01074         7.56138
   C      -10.96081         9.65473         8.87641
   C      -10.14804         8.52142         9.10406
   S       -9.51994         7.89978         7.60167
   C       -9.81410         7.93546        10.30903
   C       -8.98214         6.81824        10.32259
   S       -8.37591         6.03344        11.80825
   C       -7.51915         4.94049        10.79808
   C       -7.75849         5.23443         9.43858
   N       -8.55098         6.25787         9.20972
   C       -7.03124         4.28727         8.54834
   C       -6.32599         3.43218         9.55465
   C       -6.64114         3.84646        10.86363
   S       -5.85127         2.90973        12.06081
   C       -5.08562         1.94205        10.80900
   C       -5.45556         2.36135         9.53108
   C       -4.19330         0.90187        11.12217
   C       -3.80020         0.57194        12.38590
   C       -2.87838        -0.45438        12.65348
   C       -2.29886        -0.75496        13.85595
   C       -2.25881        -0.03394        15.10548
   C       -2.31963         1.32745        15.27454
   C       -2.22617         1.96667        16.52708
   N       -2.17738         2.53782        17.52215
   C       -2.36195         2.26369        14.22084
   N       -2.33984         3.07761        13.41122
   C       -1.89844        -0.99283        16.14768
   C       -1.51203        -2.20936        15.53078
   C       -1.68112        -2.08654        14.06732
   O       -1.41781        -2.91060        13.22008
   C       -1.07471        -3.29450        16.24969
   C       -1.02588        -3.17808        17.64322
   C       -1.42805        -1.96486        18.24965
   C       -1.86364        -0.86348        17.52236
   S       -1.29894        -2.04184        19.98076
   C       -0.70896        -3.67882        19.86745
   C       -0.61513        -4.14642        18.60033
  Br       -0.27429        -4.61555        21.43332
   H       -0.84283        -1.39963         1.04105
   H        0.61507        -0.95816        -3.73079
   H        0.80776        -3.67238         1.06411
   H       -2.93995         3.08786        -2.82190
   H       -3.48344         2.58655         1.05570
   H       -7.50290         6.58433         3.46016
   H       -9.12942         9.09913         0.89178
   H      -10.62845        10.56748         2.28724
   H      -11.40096        10.93941         4.71764
   H      -11.62668        10.85120         7.20311
   H      -11.44131        10.17475         9.68643
   H      -10.17833         8.34683        11.23671
   H       -6.35193         4.80477         7.86870
   H       -7.72032         3.71667         7.92301
   H       -5.08039         1.89088         8.64009
   H       -3.76798         0.36967        10.28068
   H       -4.22460         1.11978        13.21598
   H       -2.64064        -1.13639        11.84375
   H       -0.77780        -4.20533        15.75383
   H       -2.16473         0.03855        18.02878
   H       -0.27108        -5.13291        18.34835
*
