# ORCA input file
# SCF done       -255.729563041994          0.000925519069
! CAM-B3LYP def2-SVP def2/J RIJCOSX Grid4 TightSCF
%maxcore 5000
%tddft
    Mode sTDDFT
    Ethresh 5.0
    maxcore 5000
end

%pal
  nprocs 6
  end
* xyz 0 1
   C        4.26336        -2.10783         1.82943
   C        4.91944        -3.30713         1.91418
   C        6.13073        -3.58864         1.25199
   N        7.09951        -3.87434         0.70701
   C        4.49827        -4.35191         2.76539
   N        4.22397        -5.18711         3.50352
   C        4.81426        -0.87206         1.28096
   C        4.11056         0.21765         1.82777
   C        4.45300         1.52090         1.53049
   C        5.51273         1.74238         0.65933
   C        6.20775         0.66292         0.10208
   C        5.86835        -0.64952         0.41191
  Cl        7.50599         0.95424        -0.98319
  Cl        5.96869         3.35063         0.26624
   C        3.02135        -0.28017         2.69868
   O        2.24908         0.36569         3.36648
   C        3.04308        -1.75646         2.52561
   C        1.97046        -2.50552         2.89610
   C        1.61857        -3.81296         2.47685
   C        0.75194        -4.65424         3.12718
   C        0.57029        -5.89591         2.48656
   C       -0.19625        -6.99719         2.92850
   C       -0.86368        -6.98374         4.21108
   C       -0.40657        -6.49869         5.40589
   C       -1.34447        -6.61798         6.44935
   C       -2.52029        -7.18704         6.06217
   S       -2.48109        -7.61174         4.38457
   C       -3.73044        -7.47371         6.87475
   C       -0.27738        -8.07416         2.05657
   C        0.38356        -8.12491         0.80421
   C        1.21513        -7.05741         0.39943
   C        1.26116        -5.95924         1.24917
   S        2.17947        -4.50863         0.96583
   C        2.00293        -7.13614        -0.81145
   C        2.67909        -8.21696        -1.30675
   C        3.37851        -7.94040        -2.49738
   C        3.24017        -6.65497        -2.92202
   S        2.23695        -5.74692        -1.83802
   C        3.82851        -6.00650        -4.12197
   C        0.08484        -9.31449         0.10053
   C       -0.71550       -10.17951         0.79441
   S       -1.16218        -9.54097         2.36427
   C       -1.19785       -11.46465         0.39723
   C       -1.80017       -12.31832         1.28374
   C       -2.29156       -13.58388         0.96815
   C       -2.23537       -14.09675        -0.40406
   C       -1.67634       -13.42938        -1.43684
   S       -0.95763       -11.87602        -1.29682
   C       -2.84194       -15.38106        -0.34303
   C       -3.22630       -15.66897         0.96972
   C       -3.83941       -16.93875         1.06411
   C       -3.89636       -17.56322        -0.14140
   S       -3.21517       -16.64806        -1.44130
   C       -2.87322       -14.55017         1.80869
   C       -2.98553       -14.40811         3.21074
   C       -3.36996       -15.34890         4.10851
   C       -3.33206       -15.13895         5.51110
   C       -3.58147       -16.06334         6.49211
   C       -3.36952       -15.58798         7.80401
   C       -3.53650       -16.29087         9.01441
   C       -3.90072       -17.69366         9.02773
   C       -3.40019       -18.70503         8.25669
   C       -3.97115       -19.96002         8.54638
   C       -4.91149       -19.91201         9.52920
   S       -5.10281       -18.29914        10.13208
   C       -5.72218       -21.02461        10.08910
   C       -3.30753       -15.58130        10.18725
   C       -2.91135       -14.21559        10.19614
   C       -2.75896       -13.49736         8.97949
   C       -2.97404       -14.22237         7.81725
   S       -2.84824       -13.59543         6.19406
   C       -2.40626       -12.09538         8.95449
   C       -1.62795       -11.42422         8.04974
   C       -1.50141       -10.04954         8.32677
   C       -2.19136        -9.65284         9.43218
   S       -3.02291       -10.98755        10.15507
   C       -2.26740        -8.30558        10.05332
   C       -2.65113       -13.77768        11.49847
   C       -2.85190       -14.73822        12.47790
   S       -3.38030       -16.25769        11.79018
   C       -2.62868       -14.44456        13.83409
   C       -2.74262       -15.22737        14.95274
   C       -2.47176       -14.79382        16.30974
   C       -2.09820       -13.54242        16.72968
   C       -1.85628       -13.20006        18.07707
   N       -1.63691       -12.85205        19.14887
   C       -1.90262       -12.41230        15.90830
   N       -1.72393       -11.43889        15.32439
   C       -2.67645       -15.94649        17.18559
   C       -3.07193       -17.04633        16.40519
   C       -3.13561       -16.64472        14.98349
   O       -3.44849       -17.35653        14.05081
   C       -3.33684       -18.27972        16.96280
   C       -3.20274       -18.42266        18.33831
   C       -2.80893       -17.33461        19.12400
   C       -2.54410       -16.09274        18.55684
  Cl       -2.64500       -17.52416        20.82347
  Cl       -3.52108       -19.94199        19.07282
   H        3.91171         2.34565         1.96636
   H        6.42147        -1.46034        -0.03399
   H        1.25302        -2.00935         3.54254
   H        0.27440        -4.38492         4.05159
   H        0.58739        -6.11107         5.54142
   H       -1.15347        -6.27868         7.45228
   H       -3.76132        -6.82371         7.74572
   H       -3.72148        -8.50997         7.21577
   H       -4.63185        -7.32228         6.28470
   H        2.71627        -9.16804        -0.80655
   H        3.96944        -8.67237        -3.01882
   H        4.36226        -6.74248        -4.71822
   H        4.52538        -5.22124        -3.82891
   H        3.05165        -5.55017        -4.73434
   H        0.43646        -9.51943        -0.89428
   H       -1.88737       -11.96801         2.30379
   H       -1.63097       -13.83389        -2.43564
   H       -4.23155       -17.37893         1.96220
   H       -4.30702       -18.52967        -0.35980
   H       -2.67916       -13.44887         3.61029
   H       -3.67431       -16.33387         3.78878
   H       -3.91828       -17.06025         6.27404
   H       -2.61354       -18.56236         7.53697
   H       -3.68910       -20.86857         8.04390
   H       -6.78487       -20.84789         9.92434
   H       -5.56251       -21.11045        11.16325
   H       -5.44501       -21.96320         9.61526
   H       -1.12014       -11.90594         7.23431
   H       -0.91377        -9.37745         7.72646
   H       -1.72276        -7.58705         9.44706
   H       -1.83127        -8.32382        11.05216
   H       -3.30264        -7.98068        10.15217
   H       -2.29886       -12.79389        11.74979
   H       -2.30862       -13.42147        13.99048
   H       -3.63881       -19.10982        16.34402
   H       -2.24252       -15.27920        19.19567
*
