# ORCA input file
# SCF done       -179.759127211607          0.000980851039
! CAM-B3LYP def2-SVP def2/J RIJCOSX Grid4 TightSCF
%maxcore 5000
%tddft
    Mode sTDDFT
    Ethresh 5.0
    maxcore 5000
end

%pal
  nprocs 6
  end
* xyz 0 1
   C       -5.53914         1.47264         1.95164
   C       -4.23929         1.07634         1.89455
   C       -3.36771         2.17728         1.78098
   C       -4.05675         3.40441         1.75664
   S       -5.75003         3.19504         1.87251
   C       -3.11722         4.45341         1.64007
   C       -1.82762         3.88641         1.58967
   C       -1.95012         2.43398         1.69883
   C       -0.93032         1.52481         1.75285
   C        0.43192         1.88315         1.75644
   N        1.55193         2.13103         1.79633
   C       -1.17119         0.13960         1.86528
   N       -1.35779        -0.98768         1.96655
   C       -0.81875         4.81915         1.43915
   C       -1.30683         6.12833         1.37847
   S       -3.06918         6.15996         1.53093
   C       -0.62594         7.33980         1.21534
   C        0.71022         7.50303         0.90962
   C        1.39957         8.72859         0.76685
   C        2.71737         8.60052         0.41685
   C        3.12741         7.26705         0.25706
   S        1.80353         6.17872         0.58121
   C        4.35293         6.71556        -0.10280
   C        5.60093         7.30286        -0.36068
   C        6.57920         6.39306        -0.66951
   C        6.14658         5.05029        -0.67816
   S        4.44684         4.98320        -0.28115
   C        6.92825         3.92894        -0.89960
   C        6.49401         2.60486        -0.91304
   C        5.19278         2.08472        -0.89468
   C        5.17148         0.70778        -0.85508
   C        6.46583         0.11835        -0.83869
   S        7.70168         1.30410        -0.91776
   C        6.32389        -1.26430        -0.73572
   C        4.93610        -1.58070        -0.67781
   C        4.17683        -0.34630        -0.78569
   C        2.81944        -0.20986        -0.85213
   C        1.95361        -1.31976        -0.76778
   N        1.24636        -2.22101        -0.70671
   C        2.17765         1.02621        -1.07080
   N        1.62125         2.00409        -1.29530
   C        4.69496        -2.93059        -0.54497
   C        5.87587        -3.68871        -0.49954
   S        7.30996        -2.66423        -0.63905
   C        5.93986        -5.06942        -0.34715
   C        7.07136        -5.86231        -0.30828
   C        7.10230        -7.25910        -0.11814
   C        8.35934        -7.79944        -0.12217
   C        9.37813        -6.85318        -0.32493
   S        8.70011        -5.25210        -0.49829
   C       10.75127        -7.05159        -0.40601
   C       11.48147        -8.24459        -0.26223
   C       12.83046        -8.08375        -0.41313
   C       13.22946        -6.75775        -0.69198
   S       11.82428        -5.71346        -0.73825
   C       14.51907        -6.32514        -0.91546
   C       14.93987        -5.03232        -1.23296
   C       16.26427        -4.64900        -1.48249
   C       16.37375        -3.30788        -1.79743
   C       15.13320        -2.63502        -1.79061
   S       13.83057        -3.67142        -1.39241
   C       15.35892        -1.28412        -2.13089
   C       16.73578        -1.09450        -2.35476
   C       17.41807        -2.34797        -2.15474
   C       18.75730        -2.60348        -2.27458
   C       19.68174        -1.60160        -2.62892
   N       20.43841        -0.78823        -2.91705
   C       19.29845        -3.88433        -2.05338
   N       19.74259        -4.92745        -1.87461
   C       17.04238         0.23538        -2.70629
   C       15.92639         1.01142        -2.74283
   S       14.46465         0.15668        -2.35092
   H       -6.41205         0.85695         2.03660
   H       -3.92597         0.04888         1.92923
   H        0.22320         4.56741         1.39340
   H       -1.21370         8.24338         1.31296
   H        0.90551         9.67100         0.92585
   H        3.38708         9.42785         0.26329
   H        5.75790         8.36523        -0.30361
   H        7.59941         6.65554        -0.88839
   H        7.98864         4.09805        -1.03455
   H        4.30847         2.69124        -0.92775
   H        3.72262        -3.38400        -0.47531
   H        4.99011        -5.57812        -0.24170
   H        6.19874        -7.82655         0.01850
   H        8.56786        -8.84599         0.00819
   H       11.00444        -9.18464        -0.05110
   H       13.54909        -8.88058        -0.33800
   H       15.29939        -7.07279        -0.85274
   H       17.08149        -5.34555        -1.43118
   H       18.03033         0.59980        -2.92129
   H       15.85764         2.05438        -2.97922
*
