# ORCA input file
# SCF done       -198.251717229649          0.000425267670
! CAM-B3LYP def2-SVP def2/J RIJCOSX Grid4 TightSCF
%maxcore 5000
%tddft
    Mode sTDDFT
    Ethresh 5.0
    maxcore 5000
end

%pal
  nprocs 6
  end
* xyz 0 1
   C        2.90830         0.76018        -6.15723
   C        3.47461         0.32518        -7.35493
   C        3.75268         1.36155        -8.38854
   O        3.84485         2.53565        -8.14798
   O        3.87333         0.85565        -9.61830
   C        3.77853        -1.03065        -7.55710
   C        4.38653        -1.51172        -8.74224
   N        4.89333        -1.98831        -9.65280
   C        3.51335        -1.96490        -6.54967
   C        2.93572        -1.52349        -5.38046
   C        2.62483        -0.16796        -5.17013
   C        2.02369        -0.02893        -3.84517
   C        1.46008         1.11317        -3.34340
   C        1.40377         2.34320        -4.03525
   N        1.29967         3.36162        -4.55266
   C        0.79916         1.20236        -2.09908
   N        0.22611         1.34020        -1.11367
   C        2.01647        -1.34012        -3.22332
   C        2.57100        -2.31356        -4.17877
   O        2.78585        -3.49804        -4.01680
   C        1.73520        -1.59523        -1.90720
   C        1.47696        -2.84499        -1.30138
   C        0.83529        -3.96248        -1.84279
   C        0.23215        -4.19836        -3.17094
   N        0.69574        -4.86382        -0.84640
   C        1.21483        -4.39890         0.33211
   C        1.23617        -5.26389         1.53923
   C        1.69227        -3.12591         0.10244
   C        2.35824        -2.24004         1.01386
   C        2.21323        -2.25799         2.35426
   C        2.91079        -1.40304         3.25719
   C        3.94851        -0.52289         3.02143
   C        4.38346         0.10635         4.19089
   C        3.66205        -0.28634         5.32782
   S        2.46034        -1.43816         4.95787
   C        4.18794         0.39918         6.45822
   C        5.25178         1.20242         6.03424
   C        5.38646         1.08116         4.59272
   C        6.23071         1.78762         3.78392
   C        7.07234         2.79256         4.29623
   N        7.72700         3.63326         4.72432
   C        6.28136         1.57463         2.39023
   N        6.32574         1.37812         1.26159
   C        5.88743         1.87110         7.08620
   C        5.29482         1.63183         8.30720
   S        3.93955         0.51276         8.14204
   C        5.64470         2.15355         9.59602
   C        5.13114         1.74170        10.81478
   C        4.09467         0.73714        11.16113
   N        5.76298         2.45235        11.79194
   C        6.68037         3.29999        11.27121
   C        7.42929         4.25322        12.12357
   C        6.64328         3.15913         9.88698
   C        7.39840         3.93183         8.95921
   C        8.65028         4.41370         9.17234
   C        9.40550         5.12290         8.20889
   C        8.99312         5.79391         7.09230
   C        9.97051         6.03916         5.99893
   O       11.17224         5.93592         6.06014
   C        9.14706         6.39763         4.81839
   C        7.80152         6.50257         5.21195
   C        6.81971         6.75367         4.26963
   C        7.18900         6.91858         2.93663
   C        8.53760         6.82620         2.55543
   C        9.52935         6.56232         3.50597
   C        8.94283         7.02432         1.21111
   N        9.37430         7.20982         0.16660
   C        6.15576         7.12660         1.86874
   O        6.29333         6.71087         0.75440
   O        5.05475         7.79843         2.23267
   C        7.71216         6.29067         6.65623
   C        6.68311         6.74570         7.44464
   C        6.71224         6.71819         8.85052
   N        6.71145         6.73588         9.99879
   C        5.53569         7.37013         6.92075
   N        4.59318         7.88192         6.50950
   H        2.71406         1.81494        -6.04030
   H        4.06794         1.55747       -10.25975
   H        3.75553        -3.00819        -6.68628
   H        1.71556        -0.75021        -1.22950
   H        0.97896        -4.61710        -3.84965
   H       -0.11039        -3.26076        -3.60453
   H       -0.60445        -4.89054        -3.09532
   H        0.26782        -5.77012        -0.95804
   H        1.21463        -6.31329         1.25006
   H        0.37346        -5.07103         2.17874
   H        2.13821        -5.07838         2.11808
   H        3.00832        -1.50281         0.56491
   H        1.50645        -2.93447         2.81094
   H        4.37630        -0.36126         2.04968
   H        6.77295         2.46059         6.95442
   H        3.12089         1.03015        10.76771
   H        4.01514         0.63998        12.24186
   H        4.33964        -0.23847        10.74164
   H        5.55512         2.37192        12.77524
   H        8.44032         3.89820        12.32542
   H        6.92034         4.38596        13.07622
   H        7.49649         5.21678        11.62062
   H        6.94280         4.10627         7.99481
   H        9.17362         4.13476        10.07428
   H       10.48488         5.05385         8.30767
   H        5.77718         6.76420         4.55254
   H       10.56558         6.48132         3.21487
   H        5.06597         8.11240         3.14782
*
