# ORCA input file
# SCF done       -217.852826312875          0.000938668817
! CAM-B3LYP def2-SVP def2/J RIJCOSX Grid4 TightSCF
%maxcore 5000
%tddft
    Mode sTDDFT
    Ethresh 5.0
    maxcore 5000
end

%pal
  nprocs 6
  end
* xyz 0 1
   C        4.54403         2.77108         6.45745
   C        3.42668         2.68933         7.24147
   F        3.55763         2.64634         8.57800
   C        2.13263         2.64891         6.70361
   C        1.97814         2.69326         5.34608
   C        3.09566         2.77825         4.49017
   C        4.40356         2.82018         5.05706
   C        5.53919         2.91633         4.21954
   C        5.36829         2.96490         2.86278
   C        4.05996         2.90373         2.29991
   C        2.94666         2.81854         3.08590
   C        4.15779         2.93196         0.82875
   O        3.26213         2.95191         0.01789
   C        5.62016         2.85895         0.53744
   C        6.33136         3.10274         1.77543
   C        7.58378         3.64621         1.89284
   C        8.37325         4.01953         0.78600
   N        9.02248         4.36624        -0.09518
   C        8.18397         3.97291         3.12592
   N        8.72251         4.24038         4.10328
   C        6.03986         2.51080        -0.70763
   C        7.29149         1.98732        -1.11278
   C        7.79836         1.98990        -2.40273
   C        9.04426         1.37505        -2.48181
   C        9.47173         0.85477        -1.24360
   S        8.35668         1.14084         0.00840
   C       10.74027         0.25725        -1.41728
   C       11.13077         0.40742        -2.76089
   C       10.06971         1.10599        -3.47572
   C       10.04532         1.43147        -4.79912
   C       11.10968         1.11050        -5.66885
   N       11.97071         0.84561        -6.37756
   C        8.95010         2.09786        -5.39007
   N        8.05470         2.62634        -5.87247
   C       12.38893        -0.12792        -3.02451
   C       12.95789        -0.69009        -1.89089
   S       11.91554        -0.55274        -0.48361
   C       14.22764        -1.30655        -1.76617
   C       15.23290        -1.39529        -2.71734
   C       16.36027        -2.04800        -2.22351
   C       16.20776        -2.46980        -0.88487
   S       14.68193        -2.05474        -0.24137
   C       17.39245        -3.10055        -0.46648
   C       18.31986        -3.07540        -1.53544
   C       17.68982        -2.41848        -2.67536
   C       18.24056        -2.20104        -3.90384
   C       19.55374        -2.61176        -4.21601
   N       20.62153        -2.94657        -4.46542
   C       17.53335        -1.55571        -4.94092
   N       16.95876        -1.03003        -5.78191
   C       19.53233        -3.65152        -1.20686
   C       19.55602        -4.13326         0.10866
   S       18.01973        -3.85476         0.92970
   C       20.64942        -4.73599         0.73408
   C       20.71317        -5.24196         2.01349
   C       21.85868        -5.79185         2.63558
   C       21.65241        -6.21225         3.91715
   C       20.32954        -6.03221         4.36541
   S       19.35487        -5.29367         3.12032
   C       19.78558        -6.35852         5.59866
   C       18.43467        -6.24614         5.97619
   C       18.18939        -6.62303         7.26547
   C       19.34302        -7.02022         7.97561
   S       20.73561        -6.98952         6.91958
   C       19.47186        -7.44053         9.29067
   C       18.52216        -7.39103        10.30632
   C       17.35050        -6.66722        10.45354
   C       16.34414        -7.16374        11.42032
   O       16.47834        -8.05961        12.22269
   C       15.12056        -6.36056        11.16432
   C       15.41343        -5.38498        10.19559
   C       14.41185        -4.55192         9.72880
   C       13.12452        -4.68218        10.24883
   C       12.84850        -5.64454        11.23265
   C       13.85882        -6.49485        11.69780
   C       11.55645        -5.77213        11.80223
   N       10.55906        -5.92939        12.34268
   C       11.99217        -3.85274         9.71932
   O       10.87060        -4.26864         9.65427
   O       12.30267        -2.61783         9.30392
   C       16.83675        -5.47282         9.85194
   C       17.54577        -4.45561         9.24935
   C       18.94603        -4.42896         9.12860
   N       20.08626        -4.33494         9.02858
   C       16.94562        -3.27916         8.76793
   N       16.47762        -2.31446         8.35385
   H        5.52457         2.80276         6.90607
   H        1.28874         2.58336         7.37188
   H        0.99151         2.66321         4.90892
   H        6.51837         2.93757         4.67157
   H        1.96319         2.78279         2.64186
   H        5.28676         2.57588        -1.48766
   H        7.28394         2.45656        -3.22330
   H       12.87476        -0.11720        -3.98255
   H       15.14077        -0.99143        -3.70855
   H       20.38018        -3.73407        -1.86256
   H       21.55364        -4.80046         0.14226
   H       22.80006        -5.85271         2.11920
   H       22.40209        -6.65043         4.55184
   H       17.68498        -5.90045         5.28530
   H       17.20789        -6.66947         7.69984
   H       20.41373        -7.90916         9.54448
   H       18.69380        -8.07535        11.13313
   H       14.60875        -3.84472         8.93694
   H       13.65113        -7.24048        12.44997
   H       13.23215        -2.37898         9.42735
*
