# ORCA input file
# SCF done       -208.778297349728          0.000940592944
! CAM-B3LYP def2-SVP def2/J RIJCOSX Grid4 TightSCF
%maxcore 5000
%tddft
    Mode sTDDFT
    Ethresh 5.0
    maxcore 5000
end

%pal
  nprocs 6
  end
* xyz 0 1
   C        1.13454         0.72966         3.56164
   C        0.65106         1.32085         4.71933
   C       -0.18785         0.62910         5.58197
   C       -0.55906        -0.68082         5.31821
   C       -0.07759        -1.28291         4.16778
   C        0.76435        -0.57607         3.27950
   C        1.08401        -1.43676         2.14885
   C        1.99512        -1.16553         1.16500
   C        2.76534         0.01650         1.10729
   N        3.42463         0.94950         1.00072
   C        2.33663        -2.03002         0.10292
   N        2.66748        -2.68378        -0.78086
   C        0.25469        -2.63320         2.28447
   C       -0.26904        -2.62781         3.64803
   C       -0.60926        -3.71937         4.39942
   C       -0.54361        -5.05200         3.94433
   N       -0.47633        -6.15581         3.63656
   C       -0.97509        -3.65238         5.76163
   N       -1.27491        -3.66251         6.86854
   C       -0.02532        -3.48333         1.25236
   C       -1.07700        -4.42121         1.15471
   C       -2.27461        -4.48749         1.85525
   C       -3.06036        -5.55476         1.44682
   C       -2.47219        -6.30880         0.40818
   S       -0.96207        -5.68762        -0.06397
   C       -3.33605        -7.38498         0.08666
   C       -4.46270        -7.31447         0.93461
   C       -4.32480        -6.16591         1.81417
   C       -5.17809        -5.75731         2.79761
   C       -6.38109        -6.44145         3.06814
   N       -7.35814        -7.00695         3.26868
   C       -4.89559        -4.62497         3.58997
   N       -4.64754        -3.69882         4.21891
   C       -5.37059        -8.34045         0.71228
   C       -4.95513        -9.18856        -0.30824
   S       -3.40809        -8.69356        -1.00031
   C       -5.57860       -10.33418        -0.85954
   C       -5.13222       -11.03277        -1.98079
   C       -6.02143       -12.10052        -2.24499
   C       -7.05486       -12.06658        -1.23826
   O       -8.02637       -12.76460        -1.04103
   N       -6.72121       -10.95933        -0.42412
   C       -7.53368       -10.64527         0.71985
   C       -5.59380       -12.74756        -3.40591
   N       -4.46584       -12.09239        -3.84613
   C       -4.11854       -11.02418        -2.99861
   O       -3.15073       -10.30732        -3.17237
   C       -3.65397       -12.40890        -4.98861
   C       -6.21783       -13.86253        -4.01042
   C       -7.26918       -14.57577        -3.43930
   C       -7.70303       -15.60743        -4.25880
   C       -6.99786       -15.67780        -5.47993
   S       -5.77869       -14.49370        -5.59345
   C       -7.53158       -16.72940        -6.25700
   C       -8.57340       -17.33691        -5.52245
   C       -8.69586       -16.67182        -4.23619
   C       -9.52292       -17.03508        -3.21591
   C      -10.40172       -18.13195        -3.35454
   N      -11.10691       -19.02621        -3.48800
   C       -9.55098       -16.39301        -1.95806
   N       -9.59167       -15.91170        -0.91938
   C       -9.15666       -18.40010        -6.19490
   C       -8.57470       -18.62009        -7.43686
   S       -7.30088       -17.45637        -7.77892
   C       -8.92006       -19.57218        -8.42168
   C       -9.58843       -20.74916        -8.23107
   C      -10.30091       -21.47119        -9.28210
   C      -10.17631       -21.30536       -10.63508
   C       -9.28613       -20.41738       -11.27535
   N       -8.59072       -19.71748       -11.86271
   C      -10.90885       -22.04043       -11.59249
   N      -11.46686       -22.59880       -12.42529
   C      -11.19713       -22.40600        -8.61508
   C      -10.93662       -22.37879        -7.22613
   C      -11.67742       -23.15466        -6.35016
   C      -12.67387       -23.96728        -6.86945
   C      -12.92148       -24.00867        -8.23451
   C      -12.19061       -23.23064        -9.11998
   C       -9.82891       -21.46915        -6.98321
   C       -9.00810       -21.50514        -5.88869
   C       -9.22624       -22.33619        -4.76829
   N       -9.34308       -22.98984        -3.83307
   C       -7.79210       -20.80093        -5.77548
   N       -6.77506       -20.28540        -5.64093
   H        1.77690         1.28593         2.89919
   H        0.92906         2.33851         4.94684
   H       -0.55996         1.11586         6.47020
   H       -1.22062        -1.20554         5.98808
   H        0.58767        -3.40437         0.36436
   H       -2.56664        -3.76397         2.59447
   H       -6.28827        -8.45514         1.25528
   H       -8.28415       -11.43431         0.79002
   H       -8.04332        -9.68811         0.59531
   H       -6.93839       -10.63498         1.63359
   H       -3.28207       -13.43362        -4.93917
   H       -2.80919       -11.71880        -4.96686
   H       -4.20532       -12.26619        -5.92012
   H       -7.68464       -14.32374        -2.47843
   H       -9.99332       -18.96892        -5.83194
   H       -8.67389       -19.28956        -9.43628
   H      -11.50074       -23.11991        -5.28753
   H      -13.26478       -24.57335        -6.20023
   H      -13.69955       -24.65153        -8.61664
   H      -12.40429       -23.27011       -10.17524
*
