# ORCA input file
# SCF done       -172.211646537005          0.000657811625
! CAM-B3LYP def2-SVP def2/J RIJCOSX Grid4 TightSCF
%maxcore 5000
%tddft
    Mode sTDDFT
    Ethresh 5.0
    maxcore 5000
end

%pal
  nprocs 6
  end
* xyz 0 1
   C        6.01474        10.87757         7.57377
   C        4.72233        10.99927         7.98658
   C        3.82340        10.70768         6.94299
   C        4.47829        10.36939         5.75405
   S        6.17641        10.40855         5.91495
   C        3.49636        10.09535         4.75691
   C        2.22769        10.26021         5.32624
   C        2.38920        10.65042         6.72116
   C        1.39767        10.90386         7.62252
   C        0.03256        10.80666         7.27912
   N       -1.07742        10.72294         7.00449
   C        1.67011        11.27603         8.95591
   N        1.88702        11.57765        10.04048
   C        1.19271        10.01289         4.42173
   C        1.66833         9.65145         3.17698
   S        3.42658         9.63197         3.11816
   C        0.87359         9.37860         2.02116
   C        1.24330         8.89100         0.78531
   C        2.61975         8.47701         0.39289
   O        3.22743         8.97414        -0.50916
   O        3.14517         7.46870         1.11774
   C        0.16450         8.87426        -0.14610
   C       -1.00507         9.31240         0.41253
   S       -0.82323         9.78741         2.04418
   C        0.28043         8.40457        -1.51146
   C       -0.30920         8.94598        -2.62949
   C       -1.02326        10.24199        -2.54671
   O       -2.11912        10.47870        -2.98694
   O       -0.30559        11.15662        -1.88967
   C       -0.04623         8.18057        -3.81232
   C        0.73921         7.09272        -3.53078
   S        1.14168         6.95186        -1.87961
   C       -0.47701         8.48882        -5.16632
   C       -1.68084         9.05411        -5.47124
   C       -2.10719         9.36431        -6.76633
   C       -1.29350         9.04743        -7.93736
   C       -0.07711         8.45798        -7.87063
   S        0.68508         8.02542        -6.39816
   C       -2.05565         9.48793        -9.05465
   C       -3.25723        10.05438        -8.62484
   C       -4.03469        10.51415        -9.71161
   C       -3.41689        10.28828       -10.90125
   S       -1.87651         9.51525       -10.76302
   C       -3.30493         9.98379        -7.17929
   C       -4.30179        10.44724        -6.30416
   C       -5.46696        11.06402        -6.67253
   C       -6.40229        11.49809        -5.72495
   C       -7.58197        12.13941        -6.02851
   C       -8.58173        12.59578        -5.09231
   C       -8.57812        12.44038        -3.72649
   C       -9.59545        12.91215        -2.87347
   N      -10.38644        13.27006        -2.12108
   C       -7.58358        11.78884        -2.97027
   N       -6.83070        11.27750        -2.26813
   C       -9.63852        13.25617        -5.85588
   C       -9.30923        13.19547        -7.23113
   C       -8.01921        12.49153        -7.39310
   O       -7.45890        12.26802        -8.44996
   C      -10.10925        13.73029        -8.21009
   C      -11.29531        14.35764        -7.81340
   C      -11.61636        14.41400        -6.43769
   C      -10.80588        13.87233        -5.44702
   S      -13.12583        15.23328        -6.16669
   C      -13.30070        15.48422        -7.88320
   C      -12.28403        14.98241        -8.62270
  Br      -14.81075        16.38568        -8.53775
   H        6.90451        11.03679         8.14937
   H        4.43768        11.28221         8.98337
   H        0.14343        10.08511         4.64496
   H        2.53808         7.12891         1.78849
   H       -1.96990         9.36514        -0.05209
   H       -0.79630        11.99299        -1.83350
   H        1.08750         6.35205        -4.22339
   H       -2.34325         9.27783        -4.64962
   H        0.50789         8.22735        -8.74692
   H       -4.99636        10.98816        -9.64491
   H       -3.77647        10.53293       -11.88155
   H       -4.11661        10.31136        -5.24530
   H       -5.68998        11.23029        -7.71203
   H       -6.16614        11.31322        -4.68463
   H       -9.82976        13.66746        -9.25021
   H      -11.09629        13.94329        -4.41230
   H      -12.23098        15.04859        -9.69416
*
