# ORCA input file
# SCF done       -159.056451283324          0.000240728135
! CAM-B3LYP def2-SVP def2/J RIJCOSX Grid4 TightSCF
%maxcore 5000
%tddft
    Mode sTDDFT
    Ethresh 5.0
    maxcore 5000
end

%pal
  nprocs 6
  end
* xyz 0 1
   C        2.06050        -2.69859       -10.31288
   C        1.92232        -2.03838       -11.49327
   C        2.30552        -0.68680       -11.37722
   C        2.73227        -0.36198       -10.07673
   S        2.66042        -1.70330        -9.01999
   C        3.09735         1.00317       -10.04313
   C        2.90079         1.54582       -11.32848
   C        2.39561         0.48948       -12.20523
   C        2.08154         0.60866       -13.53172
   C        2.21878         1.82363       -14.22991
   N        2.32867         2.80974       -14.80695
   C        1.59946        -0.47674       -14.28910
   N        1.20681        -1.35620       -14.91312
   C        3.22911         2.88770       -11.40686
   C        3.68335         3.39632       -10.18533
   S        3.69171         2.16054        -8.93046
   C        4.08837         4.71632        -9.96085
   C        4.54688         5.26861        -8.78795
   C        4.95179         6.61255        -8.60612
   C        5.37097         6.90727        -7.34268
   C        5.31893         5.81177        -6.45662
   S        4.71801         4.38940        -7.28162
   C        5.67128         5.77307        -5.11867
   C        6.17304         6.81636        -4.31458
   C        6.42529         6.44539        -3.02763
   C        6.13794         5.08810        -2.73346
   S        5.52862         4.30453        -4.18092
   C        6.32504         4.51445        -1.49930
   C        6.08327         3.19352        -1.05682
   C        5.55349         2.14863        -1.84226
   C        5.35409         0.90738        -1.31082
   F        4.84008        -0.04719        -2.11913
   C        5.65171         0.55854         0.02930
   C        6.18368         1.60274         0.81411
   C        6.37954         2.84533         0.28352
   F        6.88916         3.80151         1.09255
   C        5.39885        -0.75958         0.47297
   C        5.61138        -1.34312         1.69851
   C        5.29001        -2.69229         1.99691
   C        5.58217        -3.08009         3.26993
   C        6.15626        -2.06167         4.05744
   S        6.30743        -0.59037         3.12148
   C        6.57004        -2.12574         5.37554
   C        6.50778        -3.22789         6.25502
   C        7.00375        -2.96782         7.49680
   C        7.48701        -1.64752         7.66900
   S        7.28003        -0.74335         6.17979
   C        8.03981        -1.13806         8.81822
   C        8.53509         0.15424         9.03771
   C        9.09693         0.62313        10.22557
   C        9.50755         1.94365        10.16660
   C        9.26176         2.51227         8.91668
   S        8.52508         1.41209         7.81818
   C        9.63493         3.86572         8.72525
   C       10.21881         4.53710         9.78850
  Ge       10.35179         3.30471        11.31669
   C        9.23668         3.82773        12.87330
   C       12.21925         2.86034        11.82187
   C       10.53385         5.86347         9.45582
   C       10.19410         6.17948         8.17426
   S        9.47607         4.86471         7.32646
   H        1.84656        -3.72780       -10.10493
   H        1.56470        -2.49798       -12.39660
   H        3.15507         3.49618       -12.28998
   H        4.03312         5.37530       -10.81799
   H        4.92061         7.31878        -9.41699
   H        5.71299         7.87734        -7.02973
   H        6.33542         7.80606        -4.70195
   H        6.81142         7.10678        -2.27211
   H        6.72252         5.18531        -0.74741
   H        5.29393         2.31203        -2.87439
   H        6.44103         1.43942         1.84688
   H        4.96772        -1.41951        -0.26983
   H        4.84948        -3.33431         1.25463
   H        5.40186        -4.06645         3.65798
   H        6.10157        -4.17601         5.95169
   H        7.03978        -3.68356         8.29934
   H        8.10636        -1.81352         9.66238
   H        9.19339        -0.00204        11.09660
   H        8.22607         4.06007        12.55300
   H        9.65787         4.70220        13.35946
   H        9.19634         3.01762        13.59482
   H       12.78951         2.57529        10.94351
   H       12.23224         2.03645        12.52859
   H       12.69698         3.71879        12.28368
   H       10.99339         6.55987        10.13548
   H       10.32164         7.11532         7.66593
*
