# ORCA input file
# SCF done       -218.406327590027          0.000377300216
! CAM-B3LYP def2-SVP def2/J RIJCOSX Grid4 TightSCF
%maxcore 5000
%tddft
    Mode sTDDFT
    Ethresh 5.0
    maxcore 5000
end

%pal
  nprocs 6
  end
* xyz 0 1
   C       -1.08020         3.17345         1.27622
   C       -1.02337         4.13819         0.31002
   F       -0.67697         5.39223         0.63004
   C       -1.32732         3.82937        -1.03109
   F       -1.26435         4.79623        -1.95691
   C       -1.68373         2.55907        -1.38776
   C       -1.75185         1.54292        -0.41498
   C       -1.44427         1.85357         0.94143
   C       -1.50304         0.84978         1.93522
   C       -1.85857        -0.42566         1.58259
   C       -2.17031        -0.72370         0.22834
   C       -2.12166         0.22250        -0.75406
   C       -2.53656        -2.14843         0.10576
   O       -2.86807        -2.70754        -0.91792
   C       -2.46750        -2.69831         1.47978
   C       -1.99392        -1.65002         2.36625
   C       -1.64872        -1.77951         3.68737
   C       -1.67115        -2.97640         4.43420
   N       -1.63971        -3.90759         5.10610
   C       -1.17661        -0.71639         4.48595
   N       -0.79337         0.10433         5.19119
   C       -2.89794        -3.92550         1.91364
   C       -3.28449        -5.07188         1.19764
   C       -3.17503        -5.42761        -0.14306
   C       -3.63944        -6.71133        -0.38443
   C       -4.12428        -7.35692         0.77982
   S       -3.98187        -6.38531         2.16478
   C       -4.57910        -8.64434         0.42305
   C       -4.37774        -8.82821        -0.95847
   C       -3.77791        -7.62033        -1.50902
   C       -3.41362        -7.40863        -2.80583
   C       -3.61448        -8.38858        -3.80156
   N       -3.78077        -9.18531        -4.60928
   C       -2.79840        -6.21881        -3.25310
   N       -2.28145        -5.27522        -3.64750
   C       -4.78302       -10.08272        -1.40276
   C       -5.29875       -10.85537        -0.37321
   S       -5.27947       -10.01556         1.16933
   C       -5.79425       -12.17740        -0.45619
   C       -6.37002       -12.92692         0.55579
   C       -6.73178       -14.19920         0.12372
   C       -6.42328       -14.42633        -1.23652
   S       -5.70116       -13.06381        -1.97530
   C       -6.80715       -15.73766        -1.57571
   C       -7.36588       -16.35101        -0.43047
   C       -7.35507       -15.39084         0.66594
   C       -7.86160       -15.57041         1.91986
   C       -8.51409       -16.76325         2.30015
   N       -9.06936       -17.72221         2.59347
   C       -7.80032       -14.55500         2.89768
   N       -7.74916       -13.72132         3.68296
   C       -7.75069       -17.66177        -0.63951
   C       -7.50373       -18.08524        -1.94859
   S       -6.78493       -16.79345        -2.91913
   C       -7.73719       -19.32410        -2.55397
   C       -8.18484       -20.48319        -1.95706
   C       -8.42991       -21.70477        -2.62951
   C       -8.85316       -22.71810        -1.81981
   C       -8.95414       -22.35177        -0.46200
   S       -8.50807       -20.68060        -0.24679
   C       -9.34189       -23.12718         0.62144
   C       -9.78668       -24.46526         0.62526
   C      -10.11297       -24.92696         1.86798
   C       -9.92847       -23.98040         2.90129
   S       -9.33381       -22.47433         2.24051
   C      -10.16918       -24.16654         4.24926
   C       -9.90583       -23.18717         5.20349
   C      -10.17399       -23.30274         6.55124
   C       -9.88149       -22.32663         7.57097
   C       -9.10242       -21.20122         7.43831
   C       -8.85183       -20.28917         8.48265
   N       -8.61294       -19.51068         9.29272
   C       -8.40300       -20.82536         6.27322
   N       -7.77787       -20.46730         5.37823
   C      -10.50830       -22.77928         8.81088
   C      -11.10235       -24.04473         8.58233
   C      -10.89610       -24.43300         7.17139
   O      -11.26428       -25.46560         6.64672
   C      -11.76421       -24.74031         9.56377
   C      -11.85053       -24.15663        10.83263
   C      -11.25971       -22.89005        11.04979
   C      -10.58545       -22.18822        10.05710
   S      -11.49018       -22.34898        12.68498
   C      -12.36441       -23.81297        13.04956
   C      -12.47917       -24.66405        12.00283
  Br      -13.04493       -24.07850        14.77738
   H       -0.84296         3.42646         2.29780
   H       -1.91329         2.33816        -2.41839
   H       -1.26915         1.11951         2.95217
   H       -2.36093        -0.03522        -1.77454
   H       -2.96837        -4.05261         2.98789
   H       -2.77939        -4.75995        -0.88675
   H       -4.71776       -10.43567        -2.41635
   H       -6.50983       -12.54767         1.55234
   H       -8.19964       -18.28556         0.10944
   H       -7.53045       -19.38492        -3.61496
   H       -8.28813       -21.79670        -3.69183
   H       -9.08371       -23.71038        -2.16268
   H       -9.86130       -25.04611        -0.27643
   H      -10.47602       -25.91774         2.07533
   H      -10.57373       -25.11601         4.56936
   H       -9.46647       -22.26343         4.84585
   H      -12.20408       -25.70399         9.35989
   H      -10.15471       -21.22478        10.27239
   H      -12.98633       -25.61033        12.05149
*
