# ORCA input file
# SCF done       -199.584796582850          0.000591828230
! CAM-B3LYP def2-SVP def2/J RIJCOSX Grid4 TightSCF
%maxcore 5000
%tddft
    Mode sTDDFT
    Ethresh 5.0
    maxcore 5000
end

%pal
  nprocs 6
  end
* xyz 0 1
   C       -1.48702         0.89496         2.38553
   C       -1.10653         0.66512         3.68255
   C       -1.43826        -0.49602         4.40974
   N       -1.66004        -1.42551         5.04613
   C       -0.36458         1.57651         4.46077
   N        0.22356         2.29003         5.14215
   C       -2.36054         0.05309         1.58090
   C       -2.65706         0.73562         0.36643
   C       -3.48155         0.19918        -0.57912
   C       -4.05862        -1.06965        -0.34835
   C       -3.75933        -1.76356         0.85963
   C       -2.90077        -1.18218         1.82075
   C       -4.33805        -3.03063         1.07586
   C       -5.17489        -3.58643         0.14664
   C       -5.47044        -2.90171        -1.04143
   C       -4.92455        -1.67012        -1.28312
   C       -1.96440         2.03091         0.34362
   O       -1.92218         2.82814        -0.56892
   C       -1.20457         2.09437         1.62662
   C       -0.27587         3.05127         1.91848
   C       -0.20421         4.31643         1.28400
   S        1.34116         5.03066         0.97174
   C        0.65521         6.35782         0.11572
   C       -0.74030         6.26041         0.07029
   C       -1.23595         5.13707         0.79878
   C       -2.63351         4.97746         0.97109
   C       -3.23302         4.00160         1.92591
   O       -4.11365         3.23651         1.64750
   O       -2.75983         4.06814         3.18710
   C       -3.48135         5.80138         0.27060
   C       -2.99645         6.81991        -0.55585
   C       -1.64959         7.07587        -0.65511
   O       -1.15494         8.05646        -1.44185
   C        1.51320         7.36390        -0.42232
   C        1.33964         8.74145        -0.45682
   N        0.26459         9.37996         0.22535
   O       -0.21415         8.79658         1.18050
   O       -0.09497        10.47390        -0.15322
   C        2.37420         9.44582        -1.12817
   C        2.36580        10.91274        -1.37712
   C        3.36779         8.58979        -1.54873
   S        2.99932         6.92614        -1.18607
   C        4.56589         8.90452        -2.27098
   S        4.92007         8.02582        -3.70988
   C        6.18402         9.11656        -4.16707
   C        6.40066        10.06351        -3.15993
   C        5.49338         9.92890        -2.05982
   C        5.63381        10.77971        -0.92988
   C        4.96856        10.58115         0.37419
   O        4.71391        11.46707         1.15037
   O        4.75107         9.28958         0.67741
   C        6.55821        11.79928        -0.98917
   C        7.44039        11.93421        -2.06212
   C        7.42777        11.04420        -3.11298
   O        8.38426        11.04549        -4.06165
   C        6.77686         8.95579        -5.44141
   C        7.13333         9.97231        -6.27838
   C        7.86264         9.84691        -7.52302
   C        8.56795         8.74822        -7.94141
   C        9.29615         8.68981        -9.14734
   N        9.90186         8.58128       -10.11663
   C        8.68693         7.54509        -7.21537
   N        8.83920         6.54424        -6.67324
   C        7.79269        11.12994        -8.21153
   C        7.07837        12.04720        -7.38877
   C        6.64596        11.37029        -6.15337
   O        5.95162        11.84268        -5.27620
   C        6.85092        13.33606        -7.77606
   C        7.34036        13.77736        -9.02619
   C        8.05232        12.86467        -9.85672
   C        8.26979        11.53414        -9.42996
   C        8.52849        13.31293       -11.10541
   C        8.31336        14.60060       -11.51568
   C        7.61268        15.49854       -10.69689
   C        7.13754        15.09593        -9.47812
   H       -3.69827         0.74124        -1.48725
   H       -2.68997        -1.73160         2.72486
   H       -4.10959        -3.55304         1.99328
   H       -5.61457        -4.55683         0.32250
   H       -6.13293        -3.35479        -1.76387
   H       -5.14927        -1.13767        -2.19574
   H        0.50178         2.83360         2.64058
   H       -2.08702         4.75239         3.30592
   H       -4.54623         5.66006         0.37120
   H       -3.69604         7.42956        -1.10990
   H       -1.87735         8.54053        -1.86449
   H        1.42145        11.20279        -1.83275
   H        3.18516        11.19955        -2.02970
   H        2.45269        11.46570        -0.44215
   H        4.39149         9.22450         1.57677
   H        6.63798        12.46857        -0.14625
   H        8.18568        12.71704        -2.03751
   H        9.00386        11.76981        -3.90011
   H        6.87172         7.93360        -5.78734
   H        6.30294        14.01207        -7.13625
   H        8.80326        10.86401       -10.08530
   H        9.06804        12.61797       -11.73197
   H        8.68183        14.93424       -12.47410
   H        7.45038        16.51045       -11.03677
   H        6.59621        15.78271        -8.84382
*
