# ORCA input file
# SCF done       -215.405693757131          0.000669447267
! CAM-B3LYP def2-SVP def2/J RIJCOSX Grid4 TightSCF
%maxcore 5000
%tddft
    Mode sTDDFT
    Ethresh 5.0
    maxcore 5000
end

%pal
  nprocs 6
  end
* xyz 0 1
   C       -8.32135        -9.60719       -11.47281
   O       -8.73957        -9.20962       -10.25668
   C       -7.41527       -10.61109       -11.33545
   C       -6.52407       -11.53675       -12.04979
   O       -6.32716       -11.70010       -13.22571
   N       -5.89076       -12.23499       -11.02880
   C       -6.25906       -11.86565        -9.73617
   O       -5.77486       -12.32874        -8.72950
   C       -7.26707       -10.83505        -9.93298
   C       -8.11401        -9.94756        -9.29771
   C       -8.41680        -9.70939        -7.92684
   C       -7.87427       -10.45752        -6.94170
   C       -8.01590       -10.25593        -5.52412
   C       -8.62952        -9.10227        -4.99826
   C       -8.59922        -8.79074        -3.65914
   C       -7.87098        -9.57770        -2.76711
   C       -7.27057       -10.71377        -3.24892
   C       -7.41558       -11.11349        -4.58872
   N       -6.85455       -12.37032        -4.74566
   C       -7.00595       -13.27759        -5.85482
   C       -6.23420       -12.79014        -3.58984
   O       -5.71368       -13.86831        -3.44453
   C       -6.29182       -11.64000        -2.59755
   C       -4.89093       -10.94524        -2.58856
   C       -5.00961        -9.70049        -1.70656
   O       -5.12552        -9.66071        -0.50568
   N       -5.03237        -8.61268        -2.53629
   C       -5.22363        -7.26392        -2.07678
   C       -4.86601        -8.97972        -3.86341
   C       -4.96347        -8.20301        -4.99503
   C       -4.82092        -8.82272        -6.24780
   C       -4.47607       -10.17805        -6.30943
   C       -4.38161       -10.94977        -5.16236
   C       -4.63470       -10.36022        -3.94176
   C       -5.10584        -8.02751        -7.41601
   C       -5.14208        -8.45242        -8.69671
   C       -5.52759        -7.58796        -9.75836
   O       -5.53036        -8.05070       -11.03947
   C       -5.94555        -6.26942        -9.77139
   C       -6.23797        -5.10084        -8.93720
   O       -6.17691        -4.94747        -7.74139
   N       -6.64475        -4.13532        -9.84781
   C       -6.66343        -4.54369       -11.18499
   O       -7.01898        -3.86376       -12.11077
   C       -6.19584        -5.92879       -11.12226
   C       -5.92612        -7.05130       -11.88571
   C       -5.99752        -7.23101       -13.28361
   C       -5.84933        -8.43939       -13.90005
   C       -5.88948        -8.69448       -15.28227
   C       -5.73970        -7.80442       -16.31930
   C       -5.80584        -8.13926       -17.69692
   C       -5.52336        -7.10932       -18.54093
   C       -5.20097        -5.90434       -17.87581
   S       -5.31754        -6.10997       -16.14808
   C       -4.80415        -4.70193       -18.43843
   C       -4.69633        -4.37758       -19.80752
   C       -4.23172        -3.11514       -20.03462
   C       -3.94299        -2.38636       -18.85803
   S       -4.30758        -3.35131       -17.44599
   C       -3.42220        -1.10801       -18.79040
   C       -3.12101        -0.47523       -17.58853
   C       -2.57943         0.78965       -17.47431
   C       -2.23598         1.47059       -16.25211
   C       -2.29300         0.96611       -14.97311
   C       -1.95060         1.69816       -13.81945
   N       -1.69054         2.23971       -12.84007
   C       -2.66742        -0.34626       -14.62159
   N       -2.93155        -1.40022       -14.24699
   C       -1.76712         2.80954       -16.60569
   C       -1.78033         2.93626       -18.01590
   C       -2.28229         1.68033       -18.61292
   O       -2.41625         1.45431       -19.80033
   C       -1.37615         4.07810       -18.66178
   C       -0.94017         5.15214       -17.87760
   C       -0.93694         5.01936       -16.46993
   C       -1.34385         3.86163       -15.81661
   S       -0.36465         6.46494       -15.69253
   C       -0.13878         7.21614       -17.24980
   C       -0.47451         6.42835       -18.29836
  Br        0.51962         8.97058       -17.34387
   H       -8.73102        -9.10291       -12.32541
   H       -5.19772       -12.94781       -11.20962
   H       -9.11059        -8.90435        -7.74176
   H       -7.19999       -11.24176        -7.24268
   H       -9.12073        -8.42537        -5.67775
   H       -9.10207        -7.90505        -3.30277
   H       -7.77724        -9.30029        -1.72865
   H       -6.30157       -13.06155        -6.66005
   H       -8.02581       -13.23692        -6.23762
   H       -6.79627       -14.27856        -5.47434
   H       -6.53657       -11.96273        -1.58552
   H       -4.14435       -11.65104        -2.22324
   H       -5.29282        -7.29444        -0.99012
   H       -6.14403        -6.84735        -2.49114
   H       -4.38065        -6.63630        -2.37046
   H       -5.18925        -7.15001        -4.94003
   H       -4.31972       -10.65084        -7.26480
   H       -4.14296       -12.00012        -5.23001
   H       -5.36420        -6.99515        -7.21893
   H       -4.88867        -9.46294        -8.97866
   H       -6.90873        -3.20177        -9.56599
   H       -6.22896        -6.33216       -13.83495
   H       -5.73015        -9.30977       -13.27174
   H       -6.01195        -9.73308       -15.56266
   H       -6.05646        -9.13560       -18.01560
   H       -5.51584        -7.18863       -19.61289
   H       -4.96169        -5.07363       -20.58283
   H       -4.07874        -2.68637       -21.00892
   H       -3.22800        -0.58970       -19.71837
   H       -3.32984        -1.02841       -16.68090
   H       -1.39435         4.14195       -19.73858
   H       -1.32142         3.81154       -14.74101
   H       -0.39742         6.73196       -19.32649
*
