# ORCA input file
# SCF done       -144.928565942954          0.000358770322
! CAM-B3LYP def2-SVP def2/J RIJCOSX Grid4 TightSCF
%maxcore 5000
%tddft
    Mode sTDDFT
    Ethresh 5.0
    maxcore 5000
end

%pal
  nprocs 6
  end
* xyz 0 1
   C       -1.31459        -0.74889        -0.73120
   C       -2.50805        -0.46466        -1.35810
   C       -3.44470        -1.55209        -1.26353
   N       -4.70369        -1.48522        -1.72080
   C       -5.05370        -0.39233        -2.32874
   C       -4.20088         0.72204        -2.53314
   C       -2.93043         0.70203        -2.03770
   C       -2.91127        -2.64525        -0.57850
   S       -1.30336        -2.30717        -0.03926
   C       -3.53686        -3.88877        -0.31868
   O       -3.11513        -4.62127         0.74660
   C       -4.55523        -4.57106        -0.95455
   C       -5.43492        -4.59521        -2.13020
   O       -5.54384        -3.86194        -3.07490
   N       -6.15664        -5.78203        -1.96713
   C       -5.80691        -6.55403        -0.86361
   O       -6.29596        -7.61666        -0.57373
   C       -4.75460        -5.76879        -0.21983
   C       -3.84827        -5.77261         0.82574
   C       -3.59356        -6.71392         1.84472
   C       -2.66467        -6.49163         2.82074
   C       -2.31631        -7.39599         3.83123
   C       -1.37788        -7.10292         4.79349
   C       -0.87626        -7.94323         5.81603
   C        0.07862        -7.36481         6.59991
   C        0.36849        -6.02847         6.25008
   S       -0.60166        -5.53175         4.88399
   C        1.26001        -5.13859         6.82044
   C        2.19009        -5.33533         7.86365
   C        2.93432        -4.22863         8.14882
   C        2.61937        -3.09657         7.35681
   S        1.34330        -3.49521         6.22971
   C        3.18401        -1.84404         7.40774
   C        2.74354        -0.78738         6.59790
   O        1.69781        -0.99156         5.74335
   C        3.14276         0.53722         6.47279
   C        4.07949         1.54317         6.96241
   O        4.96519         1.48233         7.77752
   N        3.72713         2.69318         6.24975
   C        2.66860         2.54047         5.35885
   O        2.21994         3.41016         4.65474
   C        2.29170         1.13454         5.51189
   C        1.40178         0.16407         5.08523
   C        0.30316         0.22889         4.19559
   C       -0.50032        -0.84265         3.96108
   C       -1.68704        -0.90189         3.19494
   C       -2.35942         0.02564         2.38664
   C       -3.62756        -0.47843         1.92188
   N       -4.48400         0.23497         1.16243
   C       -4.11822         1.43458         0.82370
   C       -2.87902         2.01541         1.17637
   C       -1.99614         1.31704         1.95370
   C       -3.87666        -1.77075         2.34700
   S       -2.61559        -2.37432         3.30511
   H       -0.44712        -0.12425        -0.64849
   H       -6.07358        -0.36299        -2.68656
   H       -4.57682         1.58295        -3.06392
   H       -2.25518         1.53889        -2.14436
   H       -6.85538        -6.07857        -2.63339
   H       -4.17459        -7.62299         1.80843
   H       -2.14209        -5.54250         2.81048
   H       -2.78409        -8.37064         3.85118
   H       -1.22968        -8.95245         5.93384
   H        0.57289        -7.85728         7.41822
   H        2.29429        -6.28087         8.36540
   H        3.69789        -4.18409         8.90491
   H        3.98767        -1.63728         8.09613
   H        4.20751         3.57252         6.37502
   H        0.13059         1.20114         3.76612
   H       -0.24106        -1.76913         4.45978
   H       -4.82791         1.99272         0.22702
   H       -2.64066         3.00744         0.82649
   H       -1.04285         1.74534         2.21823
   H       -4.74735        -2.35750         2.13558
*
