# ORCA input file
# SCF done       -211.016872036448          0.000622528297
! CAM-B3LYP def2-SVP def2/J RIJCOSX Grid4 TightSCF
%maxcore 5000
%tddft
    Mode sTDDFT
    Ethresh 5.0
    maxcore 5000
end

%pal
  nprocs 6
  end
* xyz 0 1
   C       -2.89976        -3.20051        -0.03012
   C       -3.41358        -1.96693         0.31507
   C       -4.77544        -1.68990         0.19426
   C       -5.62382        -2.68482        -0.33412
   C       -5.09201        -3.92527        -0.67958
   C       -3.74525        -4.18534        -0.51979
   N       -6.98149        -2.41875        -0.55359
   C       -7.37565        -1.18535        -1.09053
   C       -6.56969        -0.52933        -2.02053
   C       -6.92570         0.71904        -2.49231
   C       -8.09448         1.32456        -2.06253
   C       -8.91484         0.66314        -1.16309
   C       -8.56261        -0.58026        -0.67711
   C       -7.92953        -3.42178        -0.32683
   C       -7.78223        -4.29541         0.75081
   C       -8.71469        -5.28947         0.97344
   C       -9.81058        -5.42444         0.13672
   C       -9.96407        -4.55644        -0.93190
   C       -9.03212        -3.56490        -1.16884
   C       -5.32185        -0.41247         0.60300
   C       -4.71953         0.77819         0.40707
   C       -5.31857         2.02549         0.70731
   S       -6.86320         2.13881         1.47695
   C       -6.88567         3.88300         1.43185
   C       -5.72813         4.36113         0.77498
   C       -4.84098         3.30636         0.38945
   C       -3.63272         3.60333        -0.27009
   C       -3.33501         4.90268        -0.56086
   F       -2.18881         5.20198        -1.19768
   C       -4.22920         5.93956        -0.22678
   F       -3.92487         7.20303        -0.57378
   C       -5.40399         5.68336         0.42450
   C       -7.97181         4.52287         2.04180
   C       -8.09207         5.85869         2.34173
   C       -9.20963         6.43494         2.93915
   C       -9.29361         7.78654         3.22078
   C      -10.35703         8.49262         3.81545
   C      -10.14063         9.83937         3.93803
   C       -8.89395        10.26000         3.44465
   S       -7.99446         8.89710         2.82483
   C       -8.35321        11.53757         3.38822
   C       -8.90040        12.76096         3.81047
   C       -8.09001        13.83701         3.57266
   C       -6.85753        13.51954         2.96046
   S       -6.76698        11.78780         2.69667
   C       -5.93404        14.43482         2.49366
   C       -4.70295        14.19205         1.87603
   S       -4.14010        15.35115         0.69536
   C       -2.79190        14.36923         0.21562
   C       -2.72661        13.21440         1.01561
   C       -3.78336        13.12465         1.97213
   C       -3.74502        12.11494         2.94819
   C       -2.75049        11.17900         2.90234
   F       -2.69876        10.21573         3.83877
   C       -1.75536        11.21871         1.90411
   F       -0.79925        10.27446         1.89450
   C       -1.72727        12.22405         0.98069
   C       -1.93915        14.72424        -0.85040
   C       -2.01996        15.88287        -1.54921
   C       -1.20683        16.25780        -2.67183
   C       -1.30531        17.55712        -3.18182
   C       -0.57666        17.99105        -4.27840
   C        0.32987        17.09827        -4.87989
   C        0.42560        15.79412        -4.38670
   C       -0.32399        15.37677        -3.31399
   N        1.15949        17.48650        -5.93771
   C        1.32009        16.61937        -7.02293
   C        0.23323        15.87325        -7.48040
   C        0.38009        15.01329        -8.55098
   C        1.60489        14.88671        -9.18571
   C        2.68777        15.62322        -8.73364
   C        2.55353        16.48021        -7.65863
   C        1.86766        18.68788        -5.86337
   C        2.29593        19.17417        -4.62851
   C        2.98328        20.36929        -4.55147
   C        3.26303        21.09375        -5.69826
   C        2.84461        20.61235        -6.92791
   C        2.14878        19.42296        -7.01487
   C       -0.83020        19.34398        -4.78389
   C       -0.95959        19.66809        -6.06161
   H       -1.84516        -3.39912         0.08627
   H       -2.76460        -1.20751         0.72533
   H       -5.74667        -4.68186        -1.08719
   H       -3.35137        -5.15285        -0.79249
   H       -5.65947        -1.00103        -2.36116
   H       -6.28638         1.22095        -3.20368
   H       -8.36508         2.30405        -2.42660
   H       -9.82949         1.12672        -0.82386
   H       -9.19367        -1.08388         0.04081
   H       -6.93307        -4.18656         1.40971
   H       -8.58860        -5.95888         1.81169
   H      -10.53894        -6.20071         0.31559
   H      -10.81211        -4.65754        -1.59331
   H       -9.14823        -2.89811        -2.01072
   H       -6.30890        -0.42475         1.04729
   H       -3.75085         0.81438        -0.07091
   H       -2.94593         2.82417        -0.55626
   H       -6.06555         6.50721         0.62619
   H       -8.78199         3.86913         2.34293
   H       -7.26811         6.52564         2.14031
   H      -10.05966         5.81429         3.18916
   H      -11.25355         7.99219         4.13734
   H      -10.84577        10.52902         4.36683
   H       -9.87125        12.82451         4.26843
   H       -8.34494        14.85246         3.82078
   H       -6.26108        15.46809         2.50031
   H       -4.46358        12.07941         3.74846
   H       -0.93117        12.25475         0.25541
   H       -1.18523        13.99340        -1.10322
   H       -2.76229        16.60958        -1.24055
   H       -1.99802        18.24658        -2.71880
   H        1.11589        15.11169        -4.86178
   H       -0.22245        14.36057        -2.96772
   H       -0.72446        15.97651        -6.99057
   H       -0.47050        14.44485        -8.89724
   H        1.71542        14.21721       -10.02505
   H        3.64900        15.52230        -9.21590
   H        3.40343        17.04167        -7.29936
   H        2.09034        18.60630        -3.73279
   H        3.31069        20.73324        -3.58853
   H        3.80347        22.02590        -5.63453
   H        3.05454        21.17209        -7.82760
   H        1.81387        19.05904        -7.97517
   H       -0.98738        20.09636        -4.02074
   H       -0.85829        18.94344        -6.85209
   H       -1.18829        20.67478        -6.36629
*
