# ORCA input file
# SCF done       -149.757935108707          0.000761453841
! CAM-B3LYP def2-SVP def2/J RIJCOSX Grid4 TightSCF
%maxcore 5000
%tddft
    Mode sTDDFT
    Ethresh 5.0
    maxcore 5000
end

%pal
  nprocs 6
  end
* xyz 0 1
   C       -3.00373         0.05964        -0.76400
   C       -2.85331        -0.99485         0.10148
   C       -1.66814        -1.74714         0.23185
   N       -0.73478        -2.39894         0.38233
   C       -3.83724        -1.46171         0.99709
   N       -4.57228        -1.88268         1.77307
   C       -1.95651         0.60406        -1.62309
   C       -2.46685         1.74499        -2.28885
   C       -1.71977         2.48401        -3.17188
   C       -0.40067         2.07982        -3.40758
   C        0.09995         0.93799        -2.74015
   C       -0.65795         0.18887        -1.84770
   S        1.74809         0.60928        -3.18390
   C        1.74142         1.99248        -4.24489
   C        0.56757         2.66710        -4.26735
  Br        3.28422         2.41478        -5.22478
   C       -3.87694         1.94182        -1.90018
   O       -4.64507         2.76357        -2.37319
   C       -4.18446         0.87843        -0.93842
   C       -5.43029         0.60378        -0.42065
   C       -6.55750         1.42865        -0.37995
   S       -8.11287         0.66405        -0.04464
   C       -8.98672         2.16091        -0.03935
   C       -8.09995         3.21795        -0.25061
   C       -6.75478         2.80463        -0.45399
   S       -5.74467         4.18526        -0.62494
   C       -7.18073         5.17474        -0.42873
   N       -8.29218         4.56348        -0.26296
   C      -10.38613         2.19092         0.15714
   C      -11.11397         3.33633         0.17073
   C      -12.52542         3.34067         0.35569
   C      -13.33681         4.41829         0.36020
   C      -12.89629         5.83551         0.22171
   C      -14.81582         4.23668         0.59743
   N      -15.15594         4.61455         1.95337
   C      -15.51164         5.88341         2.28008
   C      -15.43458         6.40881         3.52271
   C      -15.92166         7.69588         3.87164
   C      -15.86805         8.27812         5.13660
   O      -15.29482         7.58992         6.16165
   C      -15.27180         8.22283         7.41896
   C      -16.43849         9.55561         5.18473
   C      -16.93246         9.97127         3.96643
   S      -16.68788         8.76558         2.73566
   C      -17.57573        11.19256         3.65262
   S      -17.89532        12.43757         4.84340
   C      -18.65479        13.49612         3.71768
   C      -18.67122        12.93093         2.46781
   C      -18.06161        11.63584         2.44393
   O      -18.09132        11.10820         1.19978
   C      -18.71018        12.04694         0.43446
   N      -18.88030        11.76287        -0.94076
   O      -19.44097        12.61572        -1.60472
   O      -18.46201        10.70583        -1.36198
   C      -19.08617        13.16600         1.12722
   H       -2.13779         3.34678        -3.66636
   H       -0.23189        -0.67660        -1.36862
   H        0.38944         3.54167        -4.86602
   H       -5.58829        -0.38228        -0.00126
   H       -7.10309         6.24376        -0.47153
   H      -10.87111         1.23382         0.29804
   H      -10.59219         4.26977         0.02446
   H      -12.97959         2.36395         0.48049
   H      -11.81726         5.93895         0.25608
   H      -13.33324         6.43963         1.01853
   H      -13.25528         6.24129        -0.72487
   H      -15.10564         3.19269         0.44690
   H      -15.39558         4.86489        -0.08303
   H      -14.67140         4.09506         2.67325
   H      -15.94858         6.46069         1.47539
   H      -14.99953         5.84383         4.33479
   H      -14.77572         7.52603         8.09239
   H      -16.28402         8.42325         7.78439
   H      -14.70649         9.15968         7.38488
   H      -16.50401        10.17418         6.06153
   H      -19.02977        14.44266         4.04502
   H      -19.58441        14.02105         0.71991
*
