# ORCA input file
# SCF done       -141.337440390608          0.000365390615
! CAM-B3LYP def2-SVP def2/J RIJCOSX Grid4 TightSCF
%maxcore 5000
%tddft
    Mode sTDDFT
    Ethresh 5.0
    maxcore 5000
end

%pal
  nprocs 6
  end
* xyz 0 1
   C       12.26990         1.71955         2.34406
   C       12.39698         0.78279         1.39488
   C       13.58128         0.43649         0.66008
   C       13.40648        -0.55436        -0.23989
   C       12.07944        -1.07340        -0.29156
   S       11.05555        -0.24237         0.85560
   C       11.61087        -2.07632        -1.10661
   C       12.34169        -2.81578        -2.07228
   C       11.59362        -3.73475        -2.73084
   C       10.23037        -3.78565        -2.31871
   S        9.94252        -2.61863        -1.05361
   C        9.28269        -4.58649        -2.90173
   C        7.93008        -4.73504        -2.54439
   O        7.11097        -5.30662        -3.48143
   C        7.15987        -4.45512        -1.42183
   C        7.19122        -4.00697        -0.03507
   O        8.10028        -3.67558         0.68663
   N        5.85729        -4.08687         0.37520
   C        4.97965        -4.60510        -0.56619
   O        3.79866        -4.78638        -0.39261
   C        5.83089        -4.85787        -1.72733
   C        5.83957        -5.37911        -3.00442
   C        4.82410        -5.93387        -3.83207
   C        3.54221        -6.05969        -3.42888
   C        2.45620        -6.61252        -4.20096
   C        2.56213        -6.90538        -5.56622
   C        1.50645        -7.43987        -6.28735
   C        0.31511        -7.69653        -5.63470
   C        0.19219        -7.40606        -4.26061
   C        1.23475        -6.86509        -3.54828
   C       -1.17462        -7.77798        -3.80086
   O       -1.63728        -7.67375        -2.68993
   C       -1.84279        -8.30735        -5.02018
   C       -0.94781        -8.24759        -6.10701
   C       -1.35960        -8.66292        -7.35771
   C       -2.65012        -9.15442        -7.50896
   C       -3.53583        -9.24286        -6.43475
   C       -3.12163        -8.78772        -5.17301
   C       -4.89555        -9.75069        -6.57440
   C       -5.32224       -10.77109        -7.32325
   C       -4.44592       -11.65874        -8.15223
   C       -6.77684       -11.18423        -7.26702
   N       -7.00791       -12.20090        -6.25812
   C       -7.05922       -11.84542        -4.93009
   C       -6.71495       -12.64336        -3.90788
   C       -6.88835       -12.26697        -2.53265
   C       -6.54657       -13.00499        -1.46814
   C       -5.92754       -14.36780        -1.57329
   C       -6.72007       -12.46831        -0.06865
   N       -7.27333       -13.45689         0.83634
   C       -8.60788       -13.80178         0.77157
   C       -9.45142       -13.54229        -0.22067
   H       13.11184         2.32018         2.64048
   H       11.33253         1.90031         2.83713
   H       14.51014         0.94707         0.84319
   H       14.18340        -0.94098        -0.87518
   H       13.38848        -2.64658        -2.24998
   H       11.96593        -4.38930        -3.49918
   H        9.58156        -5.14642        -3.77809
   H        5.56891        -3.83889         1.31058
   H        5.15807        -6.25767        -4.80712
   H        3.28751        -5.73748        -2.42749
   H        3.48765        -6.69814        -6.08088
   H        1.61829        -7.64878        -7.34101
   H        1.12404        -6.64308        -2.49729
   H       -0.69870        -8.60401        -8.20983
   H       -2.98704        -9.44118        -8.49281
   H       -3.79384        -8.82800        -4.32855
   H       -5.62067        -9.24277        -5.94991
   H       -3.41346       -11.63001        -7.81308
   H       -4.47846       -11.35417        -9.19924
   H       -4.80244       -12.68708        -8.10299
   H       -7.09084       -11.59001        -8.23367
   H       -7.41009       -10.32740        -7.02576
   H       -6.50462       -13.06334        -6.42433
   H       -7.47922       -10.86508        -4.74926
   H       -6.29461       -13.61688        -4.11590
   H       -7.32618       -11.28880        -2.37114
   H       -6.55257       -15.03054        -2.16943
   H       -5.81676       -14.80287        -0.58411
   H       -4.94592       -14.31095        -2.04461
   H       -7.33988       -11.55964        -0.09706
   H       -5.73269       -12.19247         0.31977
   H       -6.89995       -13.42054         1.77202
   H       -8.93328       -14.38466         1.62508
   H       -9.16760       -12.98260        -1.09192
   H      -10.46010       -13.91097        -0.18608
*
