# ORCA input file
# SCF done       -181.255560876685          0.000482668797
! CAM-B3LYP def2-SVP def2/J RIJCOSX Grid4 TightSCF
%maxcore 5000
%tddft
    Mode sTDDFT
    Ethresh 5.0
    maxcore 5000
end

%pal
  nprocs 6
  end
* xyz 0 1
   C        2.57864       -13.63077         2.37010
   C        3.55431       -12.71187         2.35412
   C        4.75190       -12.68567         3.14248
   C        5.55427       -11.62293         2.90616
   C        5.06678       -10.72417         1.91937
   S        3.53065       -11.29105         1.29506
   C        5.66458        -9.57197         1.46337
   C        6.91183        -9.02604         1.84967
   C        7.24390        -7.88848         1.18093
   C        6.28595        -7.46601         0.22822
   S        4.91830        -8.56509         0.23359
   C        6.40273        -6.38487        -0.61453
   C        5.48965        -5.97797        -1.58152
   C        5.65390        -4.92170        -2.50073
   C        4.54306        -4.77458        -3.37631
   N        4.51193        -3.82318        -4.31971
   C        5.56041        -3.04281        -4.41267
   C        6.69147        -3.21201        -3.55825
   N        6.72820        -4.12904        -2.61654
   C        7.90192        -2.34857        -3.71194
   C        5.52321        -1.97513        -5.45405
   C        3.51972        -5.70405        -3.15454
   S        3.95026        -6.74814        -1.84123
   C        2.33110        -5.77645        -3.90947
   C        1.25409        -6.63504        -3.77167
   C        0.22918        -6.40210        -4.74268
   C        0.59165        -5.34869        -5.62532
   S        2.15310        -4.66377        -5.24131
   C       -0.20551        -4.89163        -6.65808
   C        0.26247        -3.79884        -7.57182
   C        0.97815        -4.38499        -8.78990
   C       -1.44110        -5.52289        -6.82212
   C       -1.81846        -6.55123        -5.92773
   C       -1.02822        -7.01168        -4.88697
   C       -1.55173        -8.11206        -4.01265
   C       -1.39215        -9.47645        -4.68618
   S       -3.41610        -7.15135        -6.30835
   C       -3.54393        -6.04834        -7.63417
   C       -2.45743        -5.26628        -7.79077
   C        1.23116        -7.63633        -2.71256
   S        1.58786        -9.29332        -3.02940
   C        1.36500        -9.69154        -1.36935
   C        1.03586        -8.62707        -0.59899
   C        0.83705        -8.72711         0.87454
   C        0.96996        -7.41412        -1.36467
   C        0.81392        -6.08153        -0.87868
   C        0.30954        -5.64598         0.30327
   C        0.45720        -4.29961         0.73360
   C        1.48614        -3.50836         0.31146
   C        1.71454        -2.19883         0.76436
   C        2.85019        -1.48465         0.46550
   C        3.17104        -0.13981         0.89032
   C        2.34597         0.74289         1.54260
   C        2.72271         2.04835         1.91706
   N        2.96789         3.11915         2.25261
   C        1.01194         0.48987         1.92142
   N       -0.07984         0.36889         2.25817
   C        4.54778         0.13874         0.48777
   C        5.05837        -0.99404        -0.18978
   C        4.00734        -2.02667        -0.27753
   O        4.11412        -3.09675        -0.84712
   C        6.34798        -1.06716        -0.65490
   C        7.17203         0.04690        -0.46150
   C        6.64852         1.18425         0.19658
   C        5.34758         1.24901         0.68216
   S        7.83320         2.45037         0.32575
   C        9.00004         1.44539        -0.49222
   C        8.52997         0.22584        -0.84474
  Br       10.73035         2.10066        -0.80710
   H        2.63612       -14.47937         3.02828
   H        1.71704       -13.55453         1.73272
   H        4.95805       -13.46718         3.85194
   H        6.48922       -11.44679         3.40798
   H        7.52942        -9.49010         2.59740
   H        8.15582        -7.33805         1.33296
   H        7.30303        -5.78836        -0.54739
   H        8.32205        -2.46429        -4.71031
   H        8.64861        -2.64316        -2.97916
   H        7.64665        -1.29812        -3.57603
   H        6.34469        -2.09790        -6.15842
   H        5.61635        -0.99181        -4.99470
   H        4.57888        -2.03534        -5.98747
   H        0.95346        -3.15228        -7.02661
   H       -0.58582        -3.19559        -7.89858
   H        1.84381        -4.96119        -8.47232
   H        1.31365        -3.58969        -9.45116
   H        0.31108        -5.04173        -9.34404
   H       -1.04096        -8.10886        -3.05110
   H       -2.61521        -7.93374        -3.83045
   H       -1.74211       -10.26423        -4.02381
   H       -0.34925        -9.66356        -4.92985
   H       -1.97252        -9.51348        -5.60456
   H       -4.44065        -6.05933        -8.22288
   H       -2.36933        -4.52842        -8.56742
   H        1.51389       -10.70457        -1.05315
   H        1.15845        -9.70490         1.22314
   H       -0.21308        -8.59626         1.13440
   H        1.42167        -7.96295         1.38299
   H        1.16681        -5.32474        -1.56785
   H       -0.23739        -6.31263         0.95192
   H       -0.22410        -3.92684         1.48854
   H        2.21479        -3.92116        -0.36870
   H        0.96709        -1.75442         1.40917
   H        6.70851        -1.95975        -1.14142
   H        5.00306         2.13441         1.18948
   H        9.11591        -0.51916        -1.35091
*
