# ORCA input file
# SCF done       -201.267363056447          0.000719106093
! CAM-B3LYP def2-SVP def2/J RIJCOSX Grid4 TightSCF
%maxcore 5000
%tddft
    Mode sTDDFT
    Ethresh 5.0
    maxcore 5000
end

%pal
  nprocs 6
  end
* xyz 0 1
   C       -4.89254         3.34015        -2.71367
   C       -6.23220         3.20481        -2.94802
   F       -6.85875         4.04671        -3.77660
   C       -6.97105         2.17920        -2.32159
   F       -8.28100         2.07140        -2.57004
   C       -6.35914         1.30389        -1.46874
   C       -4.98010         1.41878        -1.20492
   C       -4.23126         2.45364        -1.83939
   C       -2.84669         2.58644        -1.59178
   C       -2.22918         1.71264        -0.73412
   C       -2.98667         0.68922        -0.09686
   C       -4.32599         0.53512        -0.31978
   C       -2.11847        -0.09421         0.79490
   O       -2.45011        -1.00497         1.51949
   C       -0.77057         0.54802         0.69871
   C       -0.84216         1.60560        -0.30306
   C        0.22011         2.29733        -0.81127
   C        0.10803         3.29223        -1.80791
   N        0.06948         4.10938        -2.61158
   C        1.56601         2.07563        -0.44213
   N        2.67709         1.92248        -0.20174
   C        0.24840         0.31319         1.55419
   C        0.29602        -0.80051         2.47090
   C        0.70234        -0.68456         3.78823
   C        1.07933         0.49868         4.42372
   N        1.38753         1.48579         4.92188
   S        0.61241        -2.19220         4.65749
   C        0.08048        -3.00717         3.22456
   C       -0.03913        -2.14161         2.14456
   C       -0.39050        -2.59497         0.86421
   N       -0.64734        -3.01599        -0.17216
   N       -0.18493        -4.33789         3.14622
   C       -0.17320        -5.28386         4.12479
   S        0.15737        -4.89567         5.77709
   C       -0.07379        -6.56439         6.19413
   N        0.07676        -6.90048         7.54686
   O       -0.07632        -8.06197         7.86482
   O        0.35514        -5.98276         8.29934
   C       -0.37994        -7.36078         5.12853
   C       -0.44182        -6.64773         3.91040
   C       -0.71873        -7.21952         2.62976
   C       -0.98099        -8.53543         2.40726
   C       -1.22552        -9.07410         1.13139
   C       -1.48258       -10.40118         0.89738
   C       -1.71921       -11.01803        -0.35723
   C       -1.93804       -12.35940        -0.28714
   C       -1.89126       -12.87887         1.02786
   S       -1.55657       -11.60700         2.17365
   C       -2.07558       -14.19060         1.42823
   C       -2.32590       -15.31790         0.61522
   C       -2.45941       -16.47918         1.31644
   C       -2.32349       -16.32779         2.71606
   S       -2.02292       -14.65418         3.11391
   C       -2.43509       -17.32590         3.66357
   C       -2.28366       -17.10676         5.02927
   C       -2.44220       -18.00394         6.06221
   C       -1.82880       -17.69728         7.37597
   O       -1.35155       -16.64045         7.72636
   C       -1.87946       -18.96321         8.13732
   C       -1.36744       -19.24435         9.36994
   C       -1.51045       -20.55037         9.89144
   C       -2.17828       -21.54152         9.11619
   C       -2.31125       -22.84374         9.63754
   C       -1.80828       -23.14647        10.87191
   C       -1.14999       -22.16499        11.63836
   C       -1.00317       -20.89318        11.15950
   F       -0.66578       -22.49008        12.84590
   F       -1.93733       -24.38602        11.36613
   C       -2.70477       -21.21705         7.84367
   C       -2.56417       -19.94323         7.36399
   C       -3.02809       -19.31465         6.12471
   C       -4.00629       -19.83041         5.30591
   C       -4.66448       -19.10699         4.29225
   N       -5.26964       -18.55486         3.48678
   C       -4.55257       -21.12037         5.45339
   N       -5.01564       -22.17013         5.50704
   H       -4.34257         4.12914        -3.20244
   H       -6.93806         0.52552        -0.99687
   H       -2.30827         3.38232        -2.08065
   H       -4.87594        -0.25115         0.17449
   H        1.08059         1.00374         1.61342
   H       -0.47661        -4.65496         2.22586
   H       -0.54871        -8.41605         5.23601
   H       -0.70763        -6.55903         1.77145
   H       -1.00422        -9.22860         3.23605
   H       -1.20497        -8.41065         0.27674
   H       -1.71765       -10.44789        -1.26929
   H       -2.13379       -12.98602        -1.13827
   H       -2.39746       -15.24628        -0.45499
   H       -2.66082       -17.43903         0.87581
   H       -2.62914       -18.32214         3.29439
   H       -1.91834       -16.13036         5.33621
   H       -0.85998       -18.48143         9.94046
   H       -2.81565       -23.60660         9.06523
   H       -0.49651       -20.15261        11.75834
   H       -3.20040       -21.99019         7.27880
*
