# ORCA input file
# SCF done       -207.772230273014          0.000556622353
! CAM-B3LYP def2-SVP def2/J RIJCOSX Grid4 TightSCF
%maxcore 5000
%tddft
    Mode sTDDFT
    Ethresh 5.0
    maxcore 5000
end

%pal
  nprocs 6
  end
* xyz 0 1
   C       -9.10819       -10.96402        -2.31838
   C      -10.41519       -10.67683        -2.59768
   F      -11.12050       -11.46418        -3.41892
   C      -11.03484        -9.54433        -2.03249
   F      -12.30905        -9.26360        -2.34583
   C      -10.34330        -8.72065        -1.18883
   C       -8.99316        -8.98749        -0.88790
   C       -8.36098       -10.12513        -1.46737
   C       -6.99561       -10.38710        -1.21674
   C       -6.28210        -9.52444        -0.42873
   C       -6.92272        -8.39372         0.14915
   C       -8.24491        -8.12577        -0.05843
   C       -5.92935        -7.57864         0.86314
   O       -6.13196        -6.52015         1.43321
   C       -4.63060        -8.23103         0.61997
   C       -4.86671        -9.48158        -0.08319
   C       -3.94590       -10.45925        -0.34089
   C       -2.58911       -10.39362         0.04133
   N       -1.47802       -10.37796         0.32963
   C       -4.24780       -11.67171        -0.99795
   N       -4.43512       -12.67450        -1.52250
   C       -3.41387        -7.63209         0.77594
   N       -3.15427        -6.46901         1.40919
   C       -3.82837        -5.90777         2.47870
   S       -4.18569        -6.85337         3.88738
   C       -4.64410        -5.40707         4.71442
   N       -5.12364        -5.52238         6.03088
   O       -5.43119        -4.49965         6.60864
   O       -5.19523        -6.64682         6.48886
   C       -4.51757        -4.27384         3.95510
   C       -4.06110        -4.55158         2.65395
   C       -4.08537        -3.56903         1.57767
   C       -4.67447        -3.86206         0.41420
   C       -4.94807        -2.89926        -0.64544
   C       -6.17381        -2.68305        -1.21832
   O       -7.40018        -3.22453        -1.08393
   C       -7.58649        -4.43114        -0.37534
   S       -6.19030        -1.31651        -2.30429
   C       -4.49064        -1.06363        -2.04532
   O       -3.76960        -0.09483        -2.62898
   C       -4.43987         0.73151        -3.56147
   C       -3.97364        -1.96867        -1.15363
   N       -2.62160        -1.90076        -0.81529
   C       -1.70515        -2.84680        -0.54418
   S       -0.28074        -2.27383         0.28694
   C        0.31788        -3.90047         0.40976
   N        1.55644        -4.10473         1.03341
   O        1.94150        -5.25182         1.15116
   O        2.14260        -3.10893         1.41720
   C       -0.52089        -4.81522        -0.15347
   C       -1.67801        -4.24536        -0.74171
   C       -2.58169        -5.08799        -1.45226
   C       -3.54898        -4.74867        -2.34261
   C       -4.49871        -5.70677        -2.75163
   C       -5.67071        -5.50573        -3.42328
   C       -6.74926        -6.51426        -3.27003
   O       -6.63677        -7.62570        -2.79251
   C       -7.98244        -5.84221        -3.71489
   C       -9.26799        -6.30119        -3.68687
   C      -10.30998        -5.45590        -4.12885
   C       -9.99547        -4.13998        -4.57902
   C      -11.03774        -3.29747        -5.01396
   C      -12.33017        -3.74229        -5.00913
   C      -12.64009        -5.04474        -4.56605
   C      -11.65203        -5.88468        -4.13266
   F      -13.91398        -5.44999        -4.57226
   F      -13.31766        -2.94229        -5.42680
   C       -8.65429        -3.69324        -4.59932
   C       -7.65926        -4.53722        -4.18562
   C       -6.20882        -4.36635        -4.13159
   C       -5.50782        -3.39219        -4.79235
   C       -4.10459        -3.34238        -4.92574
   N       -2.97456        -3.24136        -5.10024
   C       -6.10595        -2.31500        -5.47905
   N       -6.50934        -1.38724        -6.02186
   H       -8.64756       -11.83244        -2.76255
   H      -10.83424        -7.85948        -0.76189
   H       -6.53903       -11.24395        -1.68488
   H       -8.70639        -7.25634         0.38536
   H       -2.55097        -8.07431         0.29235
   H       -2.28905        -6.00129         1.16269
   H       -4.77937        -3.29646         4.31797
   H       -3.75795        -2.56680         1.81463
   H       -5.05865        -4.86037         0.27784
   H       -7.23165        -4.36064         0.65443
   H       -7.09130        -5.26734        -0.87649
   H       -8.66313        -4.59354        -0.38467
   H       -4.82595         0.14653        -4.40044
   H       -3.69783         1.44204        -3.91722
   H       -5.26828         1.26190        -3.08326
   H       -2.26771        -0.95089        -0.81289
   H       -0.27274        -5.86212        -0.19983
   H       -2.44469        -6.14589        -1.26343
   H       -3.64817        -3.73205        -2.67445
   H       -4.38516        -6.70803        -2.34455
   H       -9.48529        -7.29869        -3.33564
   H      -10.81829        -2.29951        -5.35989
   H      -11.91041        -6.87776        -3.79981
   H       -8.44863        -2.68982        -4.93599
*
