# ORCA input file
# SCF done       -196.148571467851          0.000569977103
! CAM-B3LYP def2-SVP def2/J RIJCOSX Grid4 TightSCF
%maxcore 5000
%tddft
    Mode sTDDFT
    Ethresh 5.0
    maxcore 5000
end

%pal
  nprocs 6
  end
* xyz 0 1
   C       -4.82420         0.94111         4.57505
   C       -4.09211         1.14495         5.71084
   F       -4.21167         2.29178         6.39436
   C       -3.20791         0.15337         6.18155
   F       -2.51074         0.37351         7.30904
   C       -3.05786        -1.02082         5.50162
   C       -3.77093        -1.24716         4.30963
   C       -4.68594        -0.25851         3.84633
   C       -5.44618        -0.48506         2.67732
   C       -5.27271        -1.65313         1.97956
   C       -4.30149        -2.60041         2.41425
   C       -3.57267        -2.42291         3.55477
   C       -4.25583        -3.72159         1.46738
   O       -3.41342        -4.58522         1.38529
   C       -5.41010        -3.50541         0.53671
   C       -5.95081        -2.17462         0.79841
   C       -6.94930        -1.54772         0.10779
   C       -7.64228        -2.08238        -1.00132
   N       -8.26295        -2.45421        -1.89182
   C       -7.44280        -0.26126         0.42216
   N       -7.88907         0.77612         0.62343
   C       -5.82838        -4.39393        -0.39074
   C       -5.37798        -5.76131        -0.48237
   C       -5.23286        -6.42747        -1.69256
   C       -5.43240        -5.86242        -2.95579
   N       -5.60216        -5.38638        -3.98556
   S       -4.70374        -8.06729        -1.51578
   C       -4.69967        -7.89150         0.20489
   C       -5.08901        -6.62278         0.61071
   C       -5.30712        -6.30280         1.96309
   N       -5.54841        -6.05121         3.05565
   C       -4.32364        -8.97052         1.04948
   O       -4.06453        -8.74796         2.36229
   C       -4.16931       -10.31423         0.78925
   C       -4.23492       -11.33462        -0.26372
   O       -4.48477       -11.22979        -1.43619
   N       -3.92559       -12.50958         0.40765
   C       -3.66053       -12.36933         1.77514
   O       -3.37459       -13.27051         2.51732
   C       -3.82206       -10.93317         2.01220
   C       -3.75297        -9.92818         2.96721
   C       -3.40334        -9.97222         4.33331
   C       -3.14238        -8.86020         5.08260
   C       -2.78993        -8.92812         6.43774
   C       -2.33829        -7.87670         7.19853
   C       -2.01728        -7.92972         8.57842
   C       -1.53506        -6.76290         9.08424
   C       -1.42605        -5.72824         8.12485
   S       -2.00607        -6.27307         6.56994
   C       -0.89896        -4.46493         8.33482
   C       -0.45475        -3.92009         9.56020
   C        0.03974        -2.65513         9.45321
   C        0.02327        -2.13315         8.13852
   S       -0.65994        -3.31515         7.03989
   C        0.48879        -0.89030         7.76584
   C        0.47468        -0.39286         6.46423
   C        0.97400         0.84260         6.10712
   C        0.96184         1.44071         4.79564
   C        0.37313         0.94070         3.65652
   C        0.36447         1.60005         2.41107
   N        0.31058         2.08304         1.37037
   C       -0.32018        -0.27836         3.56012
   N       -0.91172        -1.25042         3.39572
   C        1.67365         2.71353         4.87706
   C        2.08740         2.91707         6.21571
   C        1.65937         1.76783         7.03837
   O        1.86103         1.62484         8.22738
   C        2.79344         4.02486         6.61426
   C        3.11246         4.97947         5.64207
   C        2.69850         4.76655         4.30600
   C        1.98038         3.64620         3.90454
   S        3.20630         6.06208         3.26547
   C        3.95775         6.86089         4.62091
   C        3.83502         6.19420         5.79342
  Br        4.83624         8.49700         4.35992
   H       -5.50546         1.70576         4.23550
   H       -2.38210        -1.77595         5.86759
   H       -6.14862         0.27046         2.36474
   H       -2.85128        -3.15956         3.86966
   H       -6.55611        -4.10106        -1.13690
   H       -3.88766       -13.40564        -0.05741
   H       -3.30243       -10.96196         4.75475
   H       -3.19157        -7.88688         4.61113
   H       -2.86102        -9.89021         6.92917
   H       -2.15504        -8.83056         9.14950
   H       -1.23883        -6.62538        10.10808
   H       -0.51760        -4.46612        10.48378
   H        0.41994        -2.07613        10.27546
   H        0.89285        -0.26291         8.54763
   H        0.05384        -1.02618         5.69280
   H        3.09395         4.15018         7.64264
   H        1.69220         3.53012         2.87330
   H        4.23792         6.54259         6.72682
*
