# ORCA input file
# SCF done       -162.378309421488          0.000289159918
! CAM-B3LYP def2-SVP def2/J RIJCOSX Grid4 TightSCF
%maxcore 5000
%tddft
    Mode sTDDFT
    Ethresh 5.0
    maxcore 5000
end

%pal
  nprocs 6
  end
* xyz 0 1
   C       14.38387        -9.00835         5.92671
   C       13.81282        -8.11717         5.10435
   C       14.32890        -6.84515         4.68875
   C       13.51700        -6.16064         3.85167
   C       12.30205        -6.83084         3.53885
   S       12.23048        -8.37593         4.35208
   C       11.28706        -6.37698         2.72321
   C       11.20915        -5.15438         2.02058
   C       10.05957        -5.00083         1.30462
   C        9.16142        -6.09002         1.39362
   S        9.84243        -7.32542         2.43228
   C        7.93722        -6.15841         0.75895
   C        6.99874        -7.18530         0.77818
   N        7.08275        -8.39575         1.43863
   C        5.96824        -9.20726         1.23756
   O        5.83304       -10.31346         1.71974
   C        5.11278        -8.41418         0.37049
   C        5.76394        -7.19508         0.11152
   C        4.92114        -6.39057        -0.75641
   O        5.06792        -5.28631        -1.23383
   N        3.80388        -7.20395        -0.95823
   C        3.88366        -8.41619        -0.30639
   C        2.88576        -9.39344        -0.38222
   C        2.98501       -10.60341         0.26058
   C        1.99888       -11.59055         0.15892
   N        2.09284       -12.81689         0.78293
   C        1.00757       -13.65591         0.52342
   O        0.87965       -14.77778         0.96200
   C        0.16476       -12.84972        -0.34556
   C        0.78715       -11.60268        -0.54709
   C       -0.06553       -10.80900        -1.41576
   O        0.05212        -9.68483        -1.86120
   N       -1.14817       -11.64704        -1.67360
   C       -1.04107       -12.87654        -1.05384
   C       -1.95279       -13.93472        -1.13534
   C       -3.13101       -13.91605        -1.83912
   C       -4.03717       -14.97858        -1.92918
   N       -3.90199       -16.22849        -1.36160
   C       -4.98465       -17.07361        -1.62581
   O       -5.07563       -18.21415        -1.22832
   C       -5.86639       -16.24834        -2.43423
   C       -5.26348       -14.98901        -2.60369
   C       -6.15092       -14.15619        -3.39861
   O       -6.05539       -13.01658        -3.79856
   N       -7.24392       -14.99042        -3.64340
   C       -7.10967       -16.24609        -3.08169
   C       -8.04144       -17.28274        -3.14095
   C       -9.28518       -17.21147        -3.72881
   C      -10.18703       -18.27011        -3.74186
   C      -11.45808       -18.20714        -4.27928
   C      -12.41595       -19.24473        -4.30977
   C      -13.60307       -18.89684        -4.88320
   C      -13.64732       -17.56021        -5.33847
   S      -12.12047       -16.76352        -5.01901
   C      -14.69989       -16.90371        -5.94175
   C      -15.98531       -17.43365        -6.24058
   C      -16.82777       -16.55226        -6.82555
   C      -16.26727       -15.24894        -7.03524
   S      -14.59941       -15.23139        -6.43916
   C      -16.85764       -14.17799        -7.58420
   H       15.34676        -8.81280         6.36459
   H       13.90479        -9.93792         6.17398
   H       15.28626        -6.50076         5.03696
   H       13.74469        -5.19268         3.44222
   H       11.99624        -4.42350         2.06214
   H        9.82466        -4.13591         0.71028
   H        7.65447        -5.30374         0.15881
   H        7.86153        -8.68729         2.00806
   H        3.01866        -6.93098        -1.52925
   H        2.00985        -9.17881        -0.98091
   H        3.85817       -10.81729         0.86323
   H        2.87201       -13.08628         1.36377
   H       -1.91846       -11.36806        -2.26014
   H       -1.66128       -14.81587        -0.58117
   H       -3.43047       -13.02943        -2.38026
   H       -3.11037       -16.52313        -0.81236
   H       -8.03880       -14.68959        -4.18379
   H       -7.73906       -18.20170        -2.65833
   H       -9.60498       -16.28893        -4.19773
   H       -9.88715       -19.20834        -3.29432
   H      -12.19953       -20.21703        -3.90370
   H      -14.44124       -19.56198        -4.98659
   H      -16.23958       -18.45242        -6.00844
   H      -17.83847       -16.76956        -7.12167
   H      -17.87402       -14.22997        -7.93254
   H      -16.34198       -13.24164        -7.69342
*
