# ORCA input file
# SCF done       -182.612078848299          0.000674866456
! CAM-B3LYP def2-SVP def2/J RIJCOSX Grid4 TightSCF
%maxcore 5000
%tddft
    Mode sTDDFT
    Ethresh 5.0
    maxcore 5000
end

%pal
  nprocs 6
  end
* xyz 0 1
   C       -3.52375        -0.18749         4.11089
   O       -4.27738         0.12105         3.01856
   C       -3.84022        -0.31481         1.80610
   C       -4.52500        -0.06361         0.65294
   F       -5.66404         0.62226         0.55255
   S       -3.78280        -0.71599        -0.77205
   C       -2.38360        -0.86238         4.14269
   S       -1.51491        -1.55344         2.74496
   C       -2.65865        -1.05908         1.55035
   C       -2.48572        -1.35628         0.20395
   C       -1.34720        -2.05858        -0.22842
   N       -0.47174        -2.40200         0.71983
   C        0.55377        -2.99469         0.08293
   C        0.32581        -3.01924        -1.36374
   C        1.46198        -3.65613        -2.04859
   O        1.64086        -3.80434        -3.24074
   C        2.33865        -4.04388        -0.92987
   C        1.75539        -3.61354         0.35173
   N        2.55017        -3.97136         1.38685
   C        3.56829        -4.59419         0.83565
   C        3.49814        -4.67764        -0.60434
   C       -0.90964        -2.44776        -1.57702
   C       -1.67389        -2.27935        -2.76395
   C       -1.18347        -2.51313        -4.00182
   C       -1.92387        -2.38664        -5.22820
   C       -1.22902        -2.22014        -6.41091
   C       -1.92113        -2.04772        -7.62088
   C       -1.46646        -1.79020        -8.91270
   C       -0.04269        -1.64787        -9.32516
   C        0.36774        -2.74126       -10.32584
   N        0.16491        -4.05170        -9.73066
   C        0.26227        -0.24791        -9.88960
   N        1.69526        -0.09608       -10.07290
   C       -2.63281        -1.67968        -9.75061
   C       -2.78760        -1.39805       -11.05987
   C       -4.14248        -1.21783       -11.65493
   C       -5.27487        -1.66934       -10.79230
   C       -5.11022        -1.95367        -9.48507
   C       -3.81966        -1.92354        -8.90906
   C       -3.37349        -2.12259        -7.61683
   C       -4.06066        -2.34278        -6.40218
   C       -3.35558        -2.44361        -5.24646
   C       -4.27793         0.28250       -11.83876
   C       -4.42686         1.12304       -10.80400
   C       -4.55862         2.53389       -10.96899
   N       -4.46082         3.12038       -12.15456
   C       -4.61701         4.43861       -11.92683
   C       -4.81438         4.71666       -10.49742
   C       -4.99280         6.15785       -10.27404
   O       -5.15290         6.74724        -9.22315
   C       -4.92097         6.70884       -11.63822
   C       -4.68134         5.62976       -12.61498
   N       -4.62848         6.12580       -13.87376
   C       -4.82386         7.41785       -13.74072
   C       -5.01816         7.84800       -12.37455
   C       -4.79755         3.49437        -9.86843
   C       -4.99471         3.15168        -8.50155
   C       -5.14650         4.07418        -7.52450
   C       -5.37347         3.73373        -6.14796
   O       -5.53271         2.38534        -5.92504
   C       -5.83942         1.94995        -4.67730
   C       -6.12131         0.64254        -4.41907
   F       -6.16163        -0.34401        -5.31738
   S       -6.46477         0.32210        -2.75295
   C       -5.41606         4.68834        -5.19701
   S       -5.65169         4.46389        -3.48362
   C       -5.91740         2.72416        -3.48266
   C       -6.23583         1.98974        -2.38733
   H       -3.99379         0.20738         5.00015
   H       -1.87990        -1.04148         5.07451
   H        4.36051        -4.98579         1.44974
   H        4.22373        -5.14637        -1.23949
   H       -2.69078        -1.93454        -2.63196
   H       -0.14223        -2.79318        -4.09966
   H       -0.14921        -2.19533        -6.38972
   H        0.58076        -1.77832        -8.43352
   H        1.40773        -2.53972       -10.62690
   H       -0.26224        -2.68763       -11.21641
   H        0.74407        -4.15736        -8.90395
   H        0.42747        -4.77992       -10.38515
   H       -0.17567         0.50370        -9.20983
   H       -0.20780        -0.12514       -10.86732
   H        2.16995        -0.11522        -9.17589
   H        1.90479         0.79201       -10.51446
   H       -1.95223        -1.20482       -11.71593
   H       -4.19215        -1.69542       -12.63817
   H       -6.24998        -1.67758       -11.25341
   H       -5.95198        -2.22836        -8.86653
   H       -5.13706        -2.41266        -6.40340
   H       -3.87490        -2.60898        -4.31528
   H       -4.25315         0.68286       -12.84122
   H       -4.45572         0.73745        -9.79422
   H       -4.82864         8.05724       -14.60646
   H       -5.19651         8.85621       -12.05638
   H       -5.03262         2.10204        -8.24606
   H       -5.09915         5.12819        -7.75601
   H       -5.28128         5.72058        -5.46628
   H       -6.35576         2.33330        -1.38063
*
