# ORCA input file
# SCF done       -182.870454188844          0.000454920297
! CAM-B3LYP def2-SVP def2/J RIJCOSX Grid4 TightSCF
%maxcore 5000
%tddft
    Mode sTDDFT
    Ethresh 5.0
    maxcore 5000
end

%pal
  nprocs 6
  end
* xyz 0 1
   C       10.68477         7.07303         4.43740
   C       11.89131         7.81137         4.93704
   O       12.12543         8.07324         6.09434
   C       12.69321         8.09851         3.73856
   C       11.99885         7.67543         2.60491
   C       10.67485         7.20603         2.99785
   C        9.59130         7.13041         2.16027
   C        8.26439         6.95611         2.59960
   N        7.15489         6.85321         2.87820
   C        9.62768         7.23568         0.75402
   N        9.54298         7.25936        -0.39123
   C       12.57492         7.77740         1.33327
   C       13.81305         8.35205         1.21670
   C       14.51261         8.85498         2.33625
   C       13.96180         8.70262         3.64221
   C       14.68511         9.16708         4.76020
   C       15.88692         9.79809         4.58739
   C       16.41070         9.99471         3.29976
   C       15.74673         9.52276         2.19950
   C        9.94437         6.37393         5.33481
   C        8.92930         5.39711         5.15337
   C        7.88438         5.12786         6.15026
   N        6.96350         4.30320         5.75168
   C        7.32189         3.92865         4.49303
   C        8.62072         4.53134         4.12664
   C        8.97665         4.17245         2.78159
   S       10.45581         4.34417         2.08336
   C        7.75565         3.61854         2.25197
   C        6.79367         3.38313         3.35679
   N        5.58951         2.98066         2.86205
   C        5.68595         3.10540         1.57299
   C        6.99887         3.56731         1.10583
   C        7.28576         4.04052        -0.21567
   C        6.44966         4.87411        -0.93916
   C        5.08235         5.37460        -0.64974
   N        7.13771         5.28070        -2.04060
   C        8.39096         4.76139        -2.06479
   C        9.32140         5.06856        -3.17584
   C        8.53194         3.95991        -0.93655
   C        9.63600         3.15867        -0.53463
   C       10.92323         3.33777        -0.93037
   C       12.00253         2.67265        -0.30732
   C       11.98329         1.41844         0.46168
   N       13.08473         1.16023         1.09742
   C       13.91382         2.21894         0.83936
   C       13.28669         3.14197        -0.11647
   C       14.09806         4.30681        -0.29021
   S       13.80694         5.63603        -1.21273
   C       15.21870         4.08753         0.59770
   C       15.07230         2.79799         1.28766
   N       16.05189         2.64476         2.22455
   C       16.73056         3.75196         2.20752
   C       16.26133         4.73063         1.21796
   C       16.84281         6.00480         0.96644
   C       17.40260         6.81861         1.89254
   C       18.35590         7.89548         1.50232
   O       18.52494         8.32841         0.38438
   C       19.05082         8.25687         2.75034
   C       18.46609         7.58340         3.82463
   C       17.34531         6.78674         3.34002
   C       16.30688         6.30683         4.09081
   C       15.11563         5.78415         3.54521
   N       14.09478         5.42027         3.16624
   C       16.25188         6.38195         5.49891
   N       16.17335         6.40884         6.64310
   C       18.95218         7.76031         5.12636
   C       20.00735         8.61207         5.32499
   C       20.61352         9.31774         4.26244
   C       20.13169         9.14135         2.93235
   C       20.73816         9.84915         1.87461
   C       21.78023        10.69893         2.12493
   C       22.25945        10.87591         3.43294
   C       21.69039        10.20144         4.47837
   H       12.06418         7.39721         0.46324
   H       14.27441         8.43543         0.24351
   H       14.26788         9.02098         5.74415
   H       16.43860        10.15710         5.44341
   H       17.34642        10.52254         3.18419
   H       16.15050         9.66824         1.20813
   H       10.18628         6.59052         6.37325
   H        7.84277         5.57214         7.12942
   H        4.86243         2.84385         0.93176
   H        4.90534         5.39655         0.42260
   H        4.32618         4.73691        -1.11081
   H        4.95985         6.38273        -1.04154
   H        6.78199         5.93150        -2.72399
   H        8.77551         5.47196        -4.02662
   H        9.85926         4.17700        -3.49101
   H       10.04922         5.81426        -2.85309
   H        9.41421         2.40106         0.20562
   H       11.18402         4.15642        -1.58246
   H       11.16067         0.72467         0.49782
   H       17.59185         3.88152         2.84062
   H       16.91017         6.32144        -0.06953
   H       18.51252         7.23078         5.95548
   H       20.39693         8.75752         6.32213
   H       20.36296         9.70459         0.87378
   H       22.24366        11.24140         1.31459
   H       23.08417        11.55091         3.60726
   H       22.05732        10.33618         5.48558
*
