# ORCA input file
# SCF done       -197.937365252471          0.000604725457
! CAM-B3LYP def2-SVP def2/J RIJCOSX Grid4 TightSCF
%maxcore 5000
%tddft
    Mode sTDDFT
    Ethresh 5.0
    maxcore 5000
end

%pal
  nprocs 6
  end
* xyz 0 1
   C       -3.30734         5.48405         7.81677
   C       -3.45739         4.75172         8.97072
   C       -2.69729         4.95263        10.14030
   N       -2.11550         5.05767        11.12536
   C       -4.37735         3.70466         9.17426
   N       -5.09447         2.84198         9.42812
   C       -2.35366         6.57572         7.63826
   C       -2.50472         7.09840         6.33022
   C       -1.74872         8.14125         5.85529
   C       -0.79381         8.69817         6.71242
   C       -0.64823         8.16996         8.01581
   C       -1.41462         7.11397         8.49657
   S        0.58905         9.00925         8.89914
   C        0.89323        10.03875         7.54250
   C        0.10950         9.77263         6.47513
   C       -3.56411         6.34859         5.63080
   O       -3.94274         6.54162         4.48813
   C       -4.04472         5.34109         6.57999
   C       -5.01671         4.39632         6.34419
   C       -5.80361         4.14990         5.21680
   S       -5.77577         5.05551         3.72537
   C       -6.99853         4.04286         3.03845
   C       -7.40347         3.03797         3.91728
   C       -6.73707         3.09990         5.13982
   C       -6.95206         2.10867         6.24047
   C       -8.16182         1.21612         5.97301
   C       -8.15681         0.74842         4.52325
   C       -8.38198         1.94729         3.60577
   C       -7.42759         4.28447         1.68274
   C       -8.68378         3.94600         1.23882
   C       -9.02904         4.13850        -0.11491
   C      -10.18525         3.80492        -0.80322
   C      -11.38721         3.13484        -0.22630
   C      -12.71877         3.78048        -0.65427
   N      -13.68315         3.64803         0.42120
   C      -11.36265         1.63020        -0.55743
   N      -10.25665         0.99638         0.13896
   C       -9.95546         4.15653        -2.18610
   C      -10.69611         3.96977        -3.29220
   C      -10.24802         4.45175        -4.63474
   C       -8.87841         5.04587        -4.65598
   C       -8.12799         5.18554        -3.54792
   C       -8.61407         4.75657        -2.28889
   C       -8.05890         4.72949        -1.02757
   C       -6.79810         5.13142        -0.52378
   C       -6.49991         4.91178         0.77921
   C      -11.29550         5.46294        -5.04515
   C      -12.48016         5.10171        -5.54089
   C      -13.58806         5.97752        -5.80364
   S      -15.17560         5.31032        -5.58144
   C      -15.92018         6.84914        -5.92772
   C      -14.96322         7.79387        -6.25937
   C      -13.64528         7.30874        -6.15918
   C      -12.46042         8.17438        -6.44662
   C      -12.87429         9.37909        -7.28856
   C      -14.04826        10.08720        -6.62113
   C      -15.29001         9.19848        -6.65038
   C      -17.32651         7.01436        -5.87223
   C      -18.19969         6.32642        -5.08735
   C      -17.97352         5.48611        -3.92982
   C      -16.96487         5.63714        -3.01168
   C      -16.77429         4.81609        -1.88675
   N      -16.52970         4.15982        -0.97555
   C      -16.02607         6.68848        -3.06442
   N      -15.28069         7.56166        -3.04081
   C      -19.15471         4.65150        -3.76362
   C      -20.16897         5.12368        -4.63727
   C      -19.64120         6.24558        -5.43963
   O      -20.23193         6.92649        -6.24736
   C      -21.42226         4.56233        -4.67479
   C      -21.68215         3.48413        -3.82248
   C      -20.65973         3.01711        -2.96180
   C      -19.39422         3.58965        -2.91423
   S      -21.20645         1.67526        -2.00664
   C      -22.76718         1.75135        -2.74838
   C      -22.88113         2.73181        -3.67032
   H       -1.89029         8.51597         4.85337
   H       -1.26315         6.74939         9.49860
   H        1.65243        10.79138         7.63123
   H        0.15651        10.30927         5.54472
   H       -5.21374         3.71466         7.16039
   H       -7.07752         2.61910         7.19826
   H       -6.05453         1.48645         6.32583
   H       -9.08062         1.77379         6.16592
   H       -8.13731         0.36431         6.65389
   H       -7.19750         0.27989         4.29328
   H       -8.94321         0.01129         4.35592
   H       -9.40074         2.31552         3.76056
   H       -8.29481         1.65119         2.55836
   H       -9.42453         3.55217         1.91240
   H      -11.33622         3.22292         0.86230
   H      -13.06552         3.33362        -1.60272
   H      -12.56451         4.84975        -0.82679
   H      -13.87354         2.66811         0.60443
   H      -14.56553         4.08068         0.16572
   H      -11.31869         1.50468        -1.65395
   H      -12.28446         1.16322        -0.19878
   H       -9.37911         1.40954        -0.16127
   H      -10.22450         0.00483        -0.07088
   H      -11.66946         3.50283        -3.26109
   H      -10.29324         3.60938        -5.33990
   H       -8.52237         5.37576        -5.62047
   H       -7.14008         5.61969        -3.60389
   H       -6.08322         5.59884        -1.18487
   H       -5.53644         5.19900         1.17309
   H      -11.07071         6.48987        -4.80811
   H      -12.69360         4.04893        -5.68904
   H      -11.68655         7.59059        -6.95086
   H      -12.04554         8.53076        -5.49869
   H      -13.16497         9.04968        -8.28864
   H      -12.02862        10.06076        -7.38979
   H      -13.78877        10.31215        -5.58506
   H      -14.26453        11.02879        -7.12778
   H      -15.70983         9.18386        -7.66270
   H      -16.05555         9.60131        -5.98482
   H      -17.76540         7.71510        -6.57537
   H      -22.18048         4.94368        -5.34094
   H      -18.64152         3.20282        -2.24659
   H      -23.51426         1.04518        -2.44219
   H      -23.77622         2.92876        -4.23205
*
