# ORCA input file
# SCF done       -238.498231244632          0.001415906911
! CAM-B3LYP def2-SVP def2/J RIJCOSX Grid4 TightSCF
%maxcore 5000
%tddft
    Mode sTDDFT
    Ethresh 5.0
    maxcore 5000
end

%pal
  nprocs 6
  end
* xyz 0 1
   C       -4.67457         1.63385        -6.07334
   C       -3.63217         1.02960        -6.75807
   C       -3.24320        -0.27147        -6.46689
   C       -3.89236        -1.00854        -5.48935
   C       -4.94228        -0.41932        -4.80100
   C       -5.33086         0.91083        -5.08790
   C       -6.41101         1.29362        -4.19664
   C       -7.12311         2.45577        -4.22829
   C       -6.92641         3.47362        -5.19018
   N       -6.82172         4.33292        -5.94243
   C       -8.15469         2.82256        -3.33230
   N       -8.97956         3.21423        -2.63754
   C       -6.57557         0.18685        -3.24335
   C       -5.80733        -0.94949        -3.76340
   C       -5.95610        -2.26670        -3.43915
   C       -6.95292        -2.80554        -2.60138
   N       -7.74998        -3.33568        -1.96715
   C       -5.15786        -3.30485        -3.97390
   N       -4.54219        -4.19503        -4.35223
   C       -7.17020         0.31839        -2.04499
   C       -7.20727        -0.61289        -0.92781
   C       -6.08124        -1.08283        -0.24489
   C       -4.69203        -0.78766        -0.62858
   O       -4.30375        -0.11156        -1.54122
   S       -3.58493        -1.63512         0.48959
   C       -4.93133        -2.35027         1.45637
   O       -4.74149        -3.08684         2.37750
   C       -6.20804        -1.89057         0.89363
   C       -7.45057        -2.26574         1.41744
   C       -8.57584        -1.82415         0.71018
   C       -8.44673        -1.02204        -0.42143
   C       -9.70148        -0.70766        -1.11690
   O       -9.82292        -0.11763        -2.15146
   S      -11.05852        -1.39582        -0.18060
   C       -9.97763        -2.11173         1.07185
   O      -10.40384        -2.70435         2.01818
   C       -7.57060        -3.03033         2.66553
   C       -8.16867        -4.26431         2.68329
   C       -8.35194        -4.91930         3.91579
   C       -9.00603        -6.11168         4.22462
   C       -9.63429        -7.04691         3.25794
   C       -9.14139        -8.49887         3.44947
   N       -9.26846        -9.19187         2.19041
   C      -11.17319        -6.96366         3.32332
   N      -11.75748        -7.68482         2.20302
   C       -8.99798        -6.22584         5.66523
   C       -9.57913        -7.11260         6.49743
   C       -9.50247        -6.94583         7.97607
   C       -8.58713        -5.86992         8.44483
   C       -8.03088        -4.97650         7.59843
   C       -8.25154        -5.08677         6.20912
   C       -7.88052        -4.28623         5.13105
   C       -7.22739        -3.04299         5.06899
   C       -7.08544        -2.42901         3.85955
   C       -9.25116        -8.28652         8.62140
   C      -10.21261        -9.19121         8.72097
   C      -10.06313       -10.56194         9.19892
   C       -9.74916       -10.91426        10.51372
   C       -9.48154        -9.93531        11.57582
   O       -9.45087        -8.74182        11.50639
   S       -9.18237       -10.82156        13.11549
   C       -9.40068       -12.42950        12.36088
   O       -9.29354       -13.45371        12.97865
   C       -9.72955       -12.25232        10.94080
   C      -10.02298       -13.30591        10.06473
   C      -10.29400       -12.94856         8.73985
   C      -10.31624       -11.62011         8.31801
   C      -10.63248       -11.44306         6.89673
   O      -10.66464       -10.41881         6.26963
   S      -10.96209       -13.04984         6.17323
   C      -10.70499       -13.92165         7.72216
   O      -10.88147       -15.09628         7.86494
   C      -10.00718       -14.71224        10.43620
   C      -10.71897       -15.32936        11.39599
   C      -10.46549       -16.70572        11.84615
   C       -9.80505       -17.68008        11.15886
   C       -9.22206       -17.54332         9.87703
   N       -8.69546       -17.51846         8.85820
   C       -9.61736       -18.99514        11.64401
   N       -9.43860       -20.07772        11.97774
   C      -11.04227       -16.81690        13.17420
   C      -11.74351       -15.62550        13.47627
   C      -12.34722       -15.45909        14.71386
   C      -12.25995       -16.48772        15.63814
   C      -11.58598       -17.66420        15.33683
   C      -10.96966       -17.84036        14.10800
   C      -11.69863       -14.74778        12.32167
   C      -12.51309       -13.67469        12.10338
   C      -13.42212       -13.16781        13.06152
   N      -14.17108       -12.69284        13.78890
   C      -12.64329       -12.96090        10.89527
   N      -12.84880       -12.34967         9.94531
   H       -4.95606         2.64824        -6.30330
   H       -3.11169         1.58371        -7.52409
   H       -2.42139        -0.71649        -7.00648
   H       -3.57155        -2.01266        -5.26613
   H       -7.68252         1.24936        -1.83397
   H       -8.50386        -4.72025         1.76446
   H       -9.33307        -6.75326         2.24746
   H       -9.70541        -8.97686         4.26390
   H       -8.08268        -8.48761         3.73100
   H      -10.24123        -9.18468         1.89756
   H       -8.92206       -10.14105         2.24071
   H      -11.46050        -5.89937         3.35128
   H      -11.52656        -7.43437         4.24407
   H      -11.55496        -7.20003         1.33405
   H      -12.76569        -7.73235         2.30139
   H      -10.13930        -7.96536         6.14480
   H      -10.52045        -6.64421         8.28165
   H       -8.42640        -5.81560         9.51032
   H       -7.40628        -4.17810         7.97043
   H       -6.86554        -2.57459         5.97139
   H       -6.61622        -1.45875         3.79213
   H       -8.23782        -8.49328         8.92933
   H      -11.20859        -8.96707         8.35650
   H       -9.31171       -15.30519         9.85524
   H      -12.86273       -14.54713        14.96633
   H      -12.72109       -16.36921        16.60665
   H      -11.53310       -18.45229        16.07230
   H      -10.44007       -18.75442        13.89556
*
