# ORCA input file
# SCF done       -181.305289680390          0.000867389993
! CAM-B3LYP def2-SVP def2/J RIJCOSX Grid4 TightSCF
%maxcore 5000
%tddft
    Mode sTDDFT
    Ethresh 5.0
    maxcore 5000
end

%pal
  nprocs 6
  end
* xyz 0 1
   C      -16.61627        -7.30780         0.45751
   C      -16.77363        -8.39401         1.30491
   C      -15.71433        -9.24759         1.58132
   C      -14.46674        -9.04346         1.01186
   C      -14.29687        -7.96145         0.16334
   C      -15.37249        -7.08525        -0.11347
   C      -14.91050        -6.03216        -1.00724
   C      -15.68213        -5.06617        -1.58962
   C      -17.07863        -4.95542        -1.40835
   N      -18.21171        -4.80819        -1.30489
   C      -15.21827        -4.06663        -2.47410
   N      -14.92436        -3.22506        -3.19663
   C      -13.46558        -6.20591        -1.14117
   C      -13.13688        -7.51777        -0.59111
   C      -12.04679        -8.27429        -0.92463
   C      -11.10902        -7.91539        -1.91793
   N      -10.37493        -7.71052        -2.77576
   C      -11.79700        -9.55974        -0.39787
   N      -11.54747       -10.60035         0.01509
   C      -12.59301        -5.25765        -1.57977
   C      -11.19086        -5.23888        -1.36064
   C      -10.45476        -5.75299        -0.19341
   N       -9.18081        -5.50405        -0.21936
   C       -8.95343        -4.84273        -1.39082
   C      -10.20890        -4.63721        -2.11370
   C       -9.96363        -3.94041        -3.35500
   S      -11.09241        -3.53690        -4.48862
   C       -8.55060        -3.70218        -3.35035
   C       -7.95166        -4.27097        -2.13878
   N       -6.60176        -4.05012        -2.11568
   C       -6.33519        -3.39325        -3.20164
   C       -7.50419        -3.12133        -4.04984
   C       -7.49494        -2.41532        -5.26553
   N       -8.63896        -2.24145        -6.00604
   C       -8.32608        -1.51206        -7.10228
   C       -8.83589        -0.95989        -8.26213
   C       -7.75428        -0.29652        -8.88320
   N       -6.61423        -0.44530        -8.12521
   C       -6.92485        -1.20408        -7.04525
   C       -6.40474        -1.77683        -5.90159
   C       -7.78089         0.42406       -10.09712
   C       -6.79402         1.28906       -10.46625
   C       -6.61256         1.86763       -11.73671
   C       -7.32034         1.61157       -12.99966
   N       -6.70433         2.05148       -14.05478
   C       -5.55075         2.63048       -13.60273
   C       -5.52497         2.62541       -12.13423
   C       -4.28984         3.15324       -11.65108
   S       -3.91587         3.63263       -10.11677
   C       -3.47447         3.23688       -12.83970
   C       -4.30981         3.02169       -14.03956
   N       -3.54592         3.08123       -15.16232
   C       -2.32355         3.24815       -14.75915
   C       -2.17743         3.28596       -13.29585
   C       -0.92909         3.37722       -12.62061
   C       -0.60921         2.93438       -11.37457
   C        0.55461         3.40702       -10.61894
   C        1.71426         3.91661       -11.12843
   C        2.01576         4.01336       -12.50523
   N        2.32324         4.10325       -13.60714
   C        2.79477         4.36282       -10.33537
   N        3.70365         4.73895        -9.74531
   C        0.23765         3.21081        -9.21248
   C       -0.95779         2.46167        -9.11268
   C       -1.48631         2.13768        -7.87371
   C       -0.82372         2.57360        -6.73742
   C        0.34960         3.31001        -6.83339
   C        0.89385         3.63365        -8.06686
   C       -1.41297         2.13497       -10.45223
   C       -2.27015         1.11668       -10.78414
   C       -3.12845         0.47842        -9.87369
   N       -3.92551        -0.02084        -9.21122
   C       -2.45561         0.64955       -12.10141
   N       -2.61191         0.20395       -13.14738
   H      -17.44875        -6.65315         0.25875
   H      -17.73624        -8.57381         1.75841
   H      -15.86078       -10.08202         2.24972
   H      -13.64919        -9.70859         1.23832
   H      -12.98548        -4.39008        -2.09564
   H      -10.89977        -6.23692         0.65884
   H       -5.32644        -3.09488        -3.42545
   H       -9.55242        -2.60409        -5.72680
   H       -9.84194        -0.98479        -8.62898
   H       -5.67711        -0.20151        -8.43172
   H       -5.39607        -1.75301        -5.54328
   H       -8.63786         0.26602       -10.73587
   H       -6.01706         1.52919        -9.75120
   H       -8.26624         1.10786       -13.09480
   H       -1.51011         3.32531       -15.45829
   H       -0.16701         3.91279       -13.17388
   H       -2.40392         1.57858        -7.79032
   H       -1.22893         2.34052        -5.76465
   H        0.84662         3.64048        -5.93428
   H        1.80257         4.21023        -8.12289
*
