# ORCA input file
# SCF done       -220.849158805126          0.001298487799
! CAM-B3LYP def2-SVP def2/J RIJCOSX Grid4 TightSCF
%maxcore 5000
%tddft
    Mode sTDDFT
    Ethresh 5.0
    maxcore 5000
end

%pal
  nprocs 6
  end
* xyz 0 1
   C        3.32321         1.07408        -3.02029
   C        3.06385         2.04105        -3.96055
   C        2.33063         1.80938        -5.13886
   N        1.72849         1.66733        -6.10687
   C        3.61051         3.33754        -3.89317
   N        4.08990         4.38132        -3.89471
   C        3.06905        -0.35379        -3.18678
   C        3.93496        -1.06627        -2.30672
   C        3.95050        -2.42971        -2.26780
   C        3.07227        -3.15355        -3.10719
   C        2.18932        -2.44577        -3.97200
   C        2.20655        -1.03127        -4.00310
   C        1.30805        -3.18018        -4.79039
   C        1.29976        -4.54834        -4.76127
   C        2.17290        -5.24468        -3.91306
   C        3.04050        -4.56180        -3.10448
   C        4.71265        -0.10056        -1.50333
   O        5.57946        -0.33759        -0.68896
   C        4.15634         1.22943        -1.85353
   C        4.39302         2.29695        -1.03223
   C        3.65039         3.47664        -0.85463
   C        4.04562         4.57780        -0.09873
   C        3.08538         5.56720        -0.00098
   C        1.90729         5.21884        -0.66751
   S        2.00534         3.68325        -1.42804
   C        0.82601         6.12236        -0.60655
   C        1.00013         7.30427         0.10874
  Ge        2.83603         7.33714         0.82593
   C        2.90170         7.29277         2.81080
   C        3.99425         8.74050         0.03645
   C       -0.15155         8.08433         0.11683
   C       -1.20801         7.52759        -0.58220
   S       -0.75439         5.99353        -1.27962
   C       -2.54403         8.03779        -0.74031
   C       -2.98392         9.10830         0.00456
   C       -4.31439         9.55517        -0.12151
   C       -5.00470        10.56250         0.53403
   C       -4.54093        11.52114         1.58415
   C       -4.45277        10.80735         2.94613
   N       -4.40139        11.78278         4.02393
   C       -3.24175        12.27061         1.20395
   N       -2.02075        11.56336         1.56892
   C       -6.36763        10.50780         0.05736
   C       -7.46826        11.18547         0.43134
   C       -8.80703        10.89124        -0.15451
   C       -8.79226         9.88479        -1.26515
   C       -7.68537         9.20797        -1.62005
   C       -6.45559         9.45170        -0.96240
   C       -5.20777         8.87564        -1.05450
   C       -4.71512         7.79732        -1.82809
   C       -3.43254         7.39379        -1.66746
   C       -9.46920        12.16341        -0.61115
   C      -10.66847        12.55557        -0.17309
   C      -11.36571        13.74541        -0.56376
   C      -10.97992        14.78146        -1.39097
   C      -11.94004        15.78515        -1.50921
   C      -13.07916        15.50637        -0.76141
   S      -12.96027        14.01190         0.08515
   C      -14.13848        16.44181        -0.78328
   C      -13.96602        17.59719        -1.55344
  Ge      -12.18874        17.52988        -2.40422
   C      -10.95836        18.93249        -1.73209
   C      -12.24923        17.41275        -4.38283
   C      -15.06061        18.43938        -1.49067
   C      -16.08849        17.95905        -0.68263
   S      -15.65452        16.39617         0.00826
   C      -17.36101        18.44415        -0.34484
   C      -17.99985        19.62590        -0.62822
   C      -19.35527        19.91531        -0.19420
   C      -20.26698        19.03518         0.33440
   C      -21.56940        19.39580         0.73760
   N      -22.63900        19.61343         1.09559
   C      -20.08155        17.65052         0.52797
   N      -20.03780        16.51519         0.70261
   C      -19.62636        21.32109        -0.47522
   C      -18.49590        21.87033        -1.14069
   C      -17.45901        20.83221        -1.29013
   O      -16.38609        20.98460        -1.84242
   C      -18.45592        23.17364        -1.54278
   C      -19.56860        24.00708        -1.28886
   C      -20.70338        23.46634        -0.61952
   C      -20.71488        22.11076        -0.21688
   C      -21.80822        24.30536        -0.36999
   C      -21.79492        25.61622        -0.76219
   C      -20.67631        26.14817        -1.42037
   C      -19.58710        25.36061        -1.67821
   H        4.62203        -2.95343        -1.60326
   H        1.52516        -0.51639        -4.66282
   H        0.64056        -2.63929        -5.44505
   H        0.62077        -5.10156        -5.39282
   H        2.15410        -6.32445        -3.90245
   H        3.71458        -5.09288        -2.44821
   H        5.21883         2.16451        -0.33872
   H        5.02455         4.63844         0.34484
   H        2.30985         6.46520         3.18938
   H        2.50841         8.21786         3.22015
   H        3.92603         7.17277         3.14960
   H        3.89491         8.74391        -1.04421
   H        5.03247         8.54909         0.28965
   H        3.71923         9.71877         0.41798
   H       -0.21920         9.03671         0.61236
   H       -2.33782         9.61558         0.70240
   H       -5.31286        12.28962         1.69124
   H       -3.60686        10.10452         2.93107
   H       -5.36788        10.22363         3.08171
   H       -3.52761        12.29777         4.00433
   H       -4.46569        11.32045         4.92402
   H       -3.28494        13.27373         1.65844
   H       -3.23440        12.39953         0.11840
   H       -1.85644        11.62331         2.56810
   H       -1.22801        11.99016         1.10310
   H       -7.44171        11.95551         1.19084
   H       -9.42516        10.47673         0.65910
   H       -9.73914         9.71486        -1.75487
   H       -7.72104         8.46843        -2.40715
   H       -5.36975         7.30150        -2.52963
   H       -3.04573         6.56677        -2.24550
   H       -8.91892        12.73840        -1.34070
   H      -11.19493        11.94053         0.54690
   H      -10.02664        14.80774        -1.88854
   H      -10.95328        18.94200        -0.64665
   H      -11.28201        19.90618        -2.08674
   H       -9.94785        18.75244        -2.08545
   H      -12.92621        16.62462        -4.69683
   H      -11.26038        17.20284        -4.77877
   H      -12.59522        18.35503        -4.79603
   H      -15.13471        19.38178        -2.00297
   H      -17.92274        17.74783         0.26737
   H      -17.58529        23.56497        -2.04822
   H      -21.58814        21.73458         0.29141
   H      -22.66727        23.89040         0.13674
   H      -22.64677        26.25057        -0.56727
   H      -20.68203        27.18500        -1.72238
   H      -18.72291        25.76488        -2.18519
*
