# ORCA input file
# SCF done       -202.107637412563          0.000587316234
! CAM-B3LYP def2-SVP def2/J RIJCOSX Grid4 TightSCF
%maxcore 5000
%tddft
    Mode sTDDFT
    Ethresh 5.0
    maxcore 5000
end

%pal
  nprocs 6
  end
* xyz 0 1
   C       -7.46155         6.95719        -5.21112
   C       -8.37558         6.49394        -4.29570
   C       -9.60394         5.89809        -4.64576
   N      -10.61257         5.40135        -4.87573
   C       -8.22680         6.66885        -2.90678
   N       -8.12821         6.80830        -1.77131
   C       -7.68005         7.05034        -6.65091
   C       -6.75265         7.99076        -7.18786
   C       -6.74143         8.30767        -8.51522
   C       -7.66256         7.67629        -9.38207
   C       -8.57913         6.72194        -8.85370
   C       -8.57532         6.42103        -7.47134
   C       -9.48455         6.09249        -9.73117
   C       -9.48864         6.39184       -11.06668
   C       -8.58729         7.33273       -11.58576
   C       -7.69397         7.96153       -10.76118
   C       -5.87745         8.48028        -6.10831
   O       -5.01216         9.32324        -6.16745
   C       -6.24191         7.66381        -4.91245
   C       -5.38985         7.64163        -3.84748
   C       -5.26041         6.68433        -2.82422
   S       -4.31315         7.06325        -1.39865
   C       -4.49068         5.47375        -0.70568
   C       -5.24370         4.70289        -1.57089
   C       -5.67386         5.36626        -2.73740
   S       -6.51288         4.25385        -3.77407
   C       -6.26548         2.96043        -2.56362
   S       -6.77980         1.43674        -2.72923
   O       -5.59881         3.39676        -1.49815
   C       -3.88524         5.12173         0.54676
   C       -3.08216         6.02964         1.20077
   C       -2.44266         5.66465         2.39844
   C       -1.56408         6.37016         3.20968
   C       -1.09500         7.76722         2.98895
   C       -1.28055         8.65786         4.23229
   N       -1.57313        10.01322         3.80837
   C        0.36482         7.77627         2.49622
   N        0.42315         7.20136         1.16648
   C       -1.16012         5.46794         4.26393
   C       -0.27788         5.60123         5.27188
   C        0.03392         4.47694         6.19927
   C       -0.78358         3.23864         5.97688
   C       -1.66915         3.12301         4.97106
   C       -1.87148         4.19195         4.06670
   C       -2.64460         4.32372         2.93313
   C       -3.50601         3.42813         2.25504
   C       -4.10321         3.81383         1.10104
   C       -0.12883         4.89679         7.63291
   C        0.78101         4.64217         8.57897
   C        0.63456         4.95051         9.96497
   S       -0.73390         5.79305        10.64304
   C       -0.09749         5.73727        12.27632
   C        1.10417         5.05296        12.25879
   C        1.51086         4.62996        10.97700
   S        3.01569         3.76361        11.09677
   C        2.97419         3.97823        12.86815
   S        4.08686         3.41011        13.89419
   O        1.89712         4.65499        13.26720
   C       -0.83263         6.26780        13.36304
   C       -0.29060         6.69560        14.53836
   C       -1.00495         7.01963        15.76062
   C       -2.34162         6.83159        15.99859
   C       -2.97923         7.14014        17.21902
   N       -3.56050         7.37458        18.18068
   C       -3.26480         6.29946        15.07460
   N       -4.06768         5.86517        14.37753
   C       -0.02957         7.51033        16.72635
   C        1.25716         7.51956        16.11469
   C        1.14231         7.05660        14.72457
   O        2.00547         7.07826        13.87292
   C        2.37533         7.91799        16.78876
   C        2.25791         8.32569        18.13642
   C        0.97371         8.32689        18.75434
   C       -0.16725         7.91555        18.02821
   C        0.86703         8.74036        20.09799
   C        1.97481         9.13093        20.80003
   C        3.23885         9.12679        20.19145
   C        3.37756         8.73259        18.88800
   H       -6.03693         9.02898        -8.90201
   H       -9.27311         5.68819        -7.09707
   H      -10.17835         5.37042        -9.32637
   H      -10.18728         5.90490       -11.73045
   H       -8.60353         7.55665       -12.64198
   H       -6.99697         8.68667       -11.15531
   H       -4.65053         8.43651        -3.83531
   H       -2.92249         7.01142         0.77945
   H       -1.70142         8.20995         2.19470
   H       -0.39084         8.58629         4.88153
   H       -2.14270         8.30174         4.80327
   H       -0.79005        10.40947         3.30053
   H       -1.76772        10.60931         4.60423
   H        0.99893         7.25062         3.23206
   H        0.71652         8.80926         2.42111
   H        0.11056         6.23619         1.18617
   H        1.36892         7.22212         0.80330
   H        0.25833         6.52202         5.45123
   H        1.09353         4.21484         6.04811
   H       -0.61319         2.43411         6.67518
   H       -2.22756         2.20875         4.83343
   H       -3.67448         2.44133         2.65912
   H       -4.75579         3.13610         0.57658
   H       -1.06591         5.37214         7.88733
   H        1.71362         4.15041         8.32933
   H       -1.90239         6.32586        13.21097
   H        3.33949         7.91244        16.30244
   H       -1.12486         7.93146        18.52385
   H       -0.10804         8.74005        20.56265
   H        1.88308         9.44452        21.82910
   H        4.10224         9.43732        20.76056
   H        4.34835         8.72674        18.41450
*
