# ORCA input file
# SCF done       -119.334818612333          0.000744310682
! CAM-B3LYP def2-SVP def2/J RIJCOSX Grid4 TightSCF
%maxcore 5000
%tddft
    Mode sTDDFT
    Ethresh 5.0
    maxcore 5000
end

%pal
  nprocs 6
  end
* xyz 0 1
   C       -0.22597        -1.14968        -4.70160
   S        0.47549        -2.73194        -4.56997
   C       -0.04471        -2.65547        -2.88730
   N       -0.64616        -1.54247        -2.60057
   N       -0.74346        -0.71028        -3.61288
   C        0.18131        -3.70132        -1.94708
   S        1.00511        -5.16802        -2.36815
   C        0.85303        -5.78322        -0.75276
   C        0.17877        -4.86214         0.05787
   C       -0.19590        -3.69233        -0.62447
   C       -0.11092        -5.04584         1.41991
   N       -0.35909        -5.16003         2.53483
   C        1.40612        -7.05337        -0.45800
   C        1.38869        -7.65402         0.76126
   C        1.98775        -8.91644         0.99140
   N        2.00757        -9.53432         2.22019
   C        1.47609        -9.01323         3.45760
   C        2.40325        -7.97590         4.08504
   C        2.67697       -10.76790         2.17896
   O        2.81980       -11.48976         3.14587
   C        3.08469       -10.90894         0.79801
   C        2.64541        -9.75800         0.09511
   C        3.04865        -9.89957        -1.28424
   O        2.90819        -9.18008        -2.25561
   N        3.71448       -11.13542        -1.32720
   C        4.22981       -11.65943        -2.56811
   C        3.29986       -12.70967        -3.17138
   C        3.74356       -11.75001        -0.09436
   C        4.37048       -13.00008         0.14555
   C        4.40876       -13.57340         1.37381
   C        5.03511       -14.81859         1.66595
   S        5.10381       -15.38219         3.30941
   C        5.94468       -16.80627         2.84691
   C        6.25237       -17.66124         4.02333
   O        5.89285       -17.26803         5.10799
   O        6.89848       -18.79767         3.86598
   C        6.16186       -16.85293         1.46901
   C        5.64131       -15.71736         0.81641
   C        6.82038       -17.89797         0.73908
   S        7.01692       -17.85741        -1.00512
   C        7.81675       -19.38764        -0.81892
   N        7.88710       -19.79754         0.39201
   N        7.33428       -18.97182         1.25930
   H       -0.21613        -0.60133        -5.62120
   H       -0.71925        -2.86791        -0.17567
   H        1.88512        -7.55982        -1.28671
   H        0.91341        -7.16580         1.59765
   H        1.37976        -9.87154         4.12837
   H        0.48462        -8.58804         3.28128
   H        3.37604        -8.41849         4.28541
   H        1.97845        -7.62743         5.02177
   H        2.53666        -7.12103         3.42600
   H        5.23095       -12.06920        -2.40656
   H        4.30539       -10.80540        -3.24721
   H        3.16952       -13.55193        -2.49525
   H        3.71146       -13.07171        -4.10951
   H        2.32461       -12.27079        -3.36642
   H        4.83994       -13.49014        -0.69463
   H        3.94437       -13.06688         2.20944
   H        7.13956       -19.01043         2.92387
   H        5.71221       -15.58186        -0.24846
   H        8.21134       -19.92794        -1.65439
*
