# ORCA input file
# SCF done       -223.000765608521          0.000846612602
! CAM-B3LYP def2-SVP def2/J RIJCOSX Grid4 TightSCF
%maxcore 5000
%tddft
    Mode sTDDFT
    Ethresh 5.0
    maxcore 5000
end

%pal
  nprocs 6
  end
* xyz 0 1
   C       -0.53764         1.01933         0.14340
   O       -0.27034         0.47870         1.18660
   C       -0.74954         2.47014        -0.05406
   C       -1.07986         2.73493        -1.39390
   C       -1.33959         4.03870        -1.78867
   C       -1.25820         5.05137        -0.84053
   C       -0.92225         4.77720         0.48886
   C       -0.66774         3.47291         0.89037
  Br       -0.81530         6.17399         1.75456
  Br       -1.61625         6.82662        -1.37849
   C       -1.07462         1.48109        -2.14056
   C       -1.23067         1.36422        -3.49309
   C       -1.47465         2.45827        -4.35460
   N       -1.68017         3.30517        -5.09992
   C       -1.13935         0.16517        -4.23644
   N       -1.06022        -0.74947        -4.92418
   C       -0.79753         0.40399        -1.19499
   C       -0.89959        -0.92046        -1.47269
   C       -0.60026        -2.02921        -0.62940
   O        0.13320        -1.92991         0.50919
   C        0.19778        -3.17711         0.99828
   C       -0.52360        -4.02654         0.09794
   N       -0.98990        -3.24420        -0.91108
   C       -0.66259        -5.39029         0.32076
   C       -0.05106        -5.84791         1.47464
   C        0.66992        -4.97746         2.35396
   C        0.82153        -3.62141         2.14813
   O        1.12870        -5.72502         3.37112
   C        0.69193        -6.98754         3.10723
   N        0.00314        -7.10439         2.00978
   C        1.01886        -8.00197         4.05622
   N        0.58315        -9.29658         4.00489
   C       -0.19744        -9.90706         2.95533
   C        0.67810       -10.29765         1.76913
   C        1.03963       -10.03391         5.11564
   O        0.75030       -11.19487         5.31755
   C        1.83016        -9.08798         5.87535
   C        1.78686        -7.84122         5.20023
   C        2.56712        -6.88475         5.96436
   O        2.82902        -5.71781         5.79737
   N        3.03995        -7.63964         7.06316
   C        3.80966        -7.01583         8.11322
   C        2.95155        -6.70530         9.33706
   C        2.60895        -8.93909         7.01982
   C        2.94849        -9.91654         7.99813
   C        2.54116       -11.19941         7.90091
   C        2.82376       -12.22552         8.86944
   C        3.16009       -13.53644         8.47412
   C        3.40343       -13.88970         7.05867
   O        3.45101       -13.15867         6.11809
   S        3.71941       -15.65226         6.94814
   C        3.66130       -15.87466         8.72296
   O        3.84408       -16.93684         9.23852
   C        3.36716       -14.57467         9.37487
   C        3.27527       -14.40179        10.77549
   C        2.97875       -13.08484        11.17256
   C        2.75715       -12.05133        10.26150
   C        2.40141       -10.84266        11.04357
   O        2.05312        -9.75820        10.69286
   O        2.52423       -11.17013        12.36969
   C        2.89015       -12.47995        12.52937
   O        3.10447       -12.93965        13.60838
   C        3.48214       -15.51109        11.67091
   C        2.87131       -15.67213        12.86366
   C        3.10574       -16.80659        13.68670
   C        2.45067       -17.11685        14.83418
   C        3.04897       -18.10174        15.78451
   O        3.92932       -18.89105        15.55096
   C        2.36873       -17.84499        17.07150
   C        1.35180       -16.88879        16.88649
   C        1.28145       -16.53513        15.46954
   C        0.20812       -15.95194        14.85607
   C        0.03969       -15.82552        13.45897
   N       -0.18198       -15.72416        12.33793
   C       -0.92937       -15.48392        15.55287
   N       -1.86745       -15.07883        16.07312
   C        0.60801       -16.45716        17.97205
   C        0.88291       -16.99576        19.22384
   C        1.88311       -17.95727        19.39598
   C        2.63780       -18.38649        18.31186
  Br        2.22730       -18.67867        21.10646
  Br       -0.12136       -16.39940        20.70772
   H       -1.60634         4.29002        -2.80219
   H       -0.41087         3.24474         1.91327
   H       -1.27598        -1.24015        -2.43527
   H       -1.20601        -6.03378        -0.34763
   H        1.35955        -2.97737         2.82081
   H       -0.96837        -9.20464         2.63469
   H       -0.65452       -10.79780         3.39396
   H        1.11427        -9.41059         1.31807
   H        0.07437       -10.80585         1.02345
   H        1.47284       -10.96630         2.09109
   H        4.19558        -6.08502         7.68770
   H        4.65471        -7.65677         8.37924
   H        2.13721        -6.04134         9.05805
   H        3.55731        -6.21047        10.09104
   H        2.52949        -7.61116         9.76525
   H        3.57946        -9.60097         8.81479
   H        1.98972       -11.51476         7.02179
   H        4.10798       -16.31033        11.29771
   H        2.18940       -14.92458        13.23162
   H        3.93688       -17.45312        13.42621
   H       -0.16473       -15.71131        17.87754
   H        3.41621       -19.12356        18.43441
*
