# ORCA input file
# SCF done       -174.608330304155          0.000394005715
! CAM-B3LYP def2-SVP def2/J RIJCOSX Grid4 TightSCF
%maxcore 5000
%tddft
    Mode sTDDFT
    Ethresh 5.0
    maxcore 5000
end

%pal
  nprocs 6
  end
* xyz 0 1
   C        1.39548        -1.90215        -3.42241
   O        0.93174        -2.97209        -3.75450
   C        2.61977        -1.27906        -3.95985
   C        2.82159        -0.02874        -3.34909
   C        3.92665         0.73050        -3.70007
   C        4.80465         0.22951        -4.65449
   C        4.59055        -1.01250        -5.25889
   C        3.48679        -1.77891        -4.90965
  Br        5.79911        -1.66478        -6.55505
  Br        6.31293         1.26370        -5.12905
   C        1.73560         0.21903        -2.40323
   C        1.55788         1.37132        -1.68965
   C        2.43358         2.47904        -1.75303
   N        3.10745         3.40709        -1.76288
   C        0.48427         1.65016        -0.81353
   N       -0.35118         1.97260        -0.09631
   C        0.87801        -0.95948        -2.40766
   C       -0.17960        -1.17803        -1.57658
   C       -1.05831        -2.28311        -1.50664
   S       -1.13223        -3.71220        -2.52650
   C       -2.48082        -4.19691        -1.53239
   N       -2.75735        -3.32530        -0.57821
   N       -1.98962        -2.29436        -0.57245
   C       -3.19904        -5.40177        -1.74281
   C       -4.24058        -5.75908        -0.94816
   C       -4.98802        -6.94546        -1.14776
   N       -6.05397        -7.31804        -0.36303
   C       -6.61209        -6.57421         0.74146
   C       -7.49141        -5.42178         0.26345
   C       -6.62192        -8.52971        -0.78596
   O       -7.57562        -9.05193        -0.24320
   C       -5.81615        -8.92716        -1.92174
   C       -4.82328        -7.93572        -2.11606
   C       -4.01814        -8.32910        -3.25212
   O       -3.06700        -7.80738        -3.79732
   N       -4.58785        -9.54228        -3.67771
   C       -4.01894       -10.28642        -4.77583
   C       -3.15831       -11.44951        -4.28874
   C       -5.65544        -9.91266        -2.89524
   C       -6.42297       -11.08751        -3.11493
   C       -7.45622       -11.43331        -2.31104
   C       -8.28027       -12.59574        -2.46547
   C       -8.22485       -13.50805        -3.53399
   N       -9.00821       -14.55700        -3.61295
   C       -9.86076       -14.77445        -2.61041
   N      -10.01947       -13.96056        -1.56007
   C       -9.26102       -12.89379        -1.50067
   C      -10.71295       -15.93373        -2.72748
   C      -11.43629       -16.52610        -1.75422
   C      -12.56317       -17.44235        -2.11294
   O      -12.76126       -17.97113        -3.17715
   C      -13.40282       -17.49470        -0.89655
   C      -12.76413       -16.80430         0.15179
   C      -11.46208       -16.33489        -0.31172
   C      -10.40153       -16.01600         0.48396
   C       -9.08548       -15.82873         0.00457
   N       -7.98554       -15.74402        -0.30946
   C      -10.47643       -15.93609         1.89178
   N      -10.49943       -15.85092         3.03524
   C      -13.38789       -16.68987         1.38321
   C      -14.63701       -17.27514         1.55240
   C      -15.25745       -17.97336         0.51210
   C      -14.63917       -18.08473        -0.72634
  Br      -16.94977       -18.76912         0.77623
  Br      -15.49801       -17.11022         3.22512
   H        4.12841         1.69168        -3.25632
   H        3.30897        -2.74022        -5.36630
   H       -0.41988        -0.43028        -0.83044
   H       -2.88921        -6.02540        -2.56981
   H       -4.50880        -5.10471        -0.13167
   H       -5.80380        -6.20810         1.37960
   H       -7.21691        -7.28627         1.30986
   H       -6.91949        -4.71489        -0.33318
   H       -7.90696        -4.89927         1.12027
   H       -8.31051        -5.80445        -0.34067
   H       -3.39699        -9.57737        -5.32933
   H       -4.81835       -10.63895        -5.43361
   H       -2.34054       -11.07507        -3.67807
   H       -2.74053       -11.97893        -5.14043
   H       -3.74181       -12.14814        -3.69305
   H       -6.15030       -11.70687        -3.95666
   H       -7.69619       -10.80191        -1.46493
   H       -7.53889       -13.38083        -4.36130
   H       -9.41663       -12.24002        -0.65128
   H      -10.82975       -16.31654        -3.73447
   H      -12.93827       -16.15301         2.20316
   H      -15.11216       -18.61769        -1.53660
*
