# ORCA input file
# SCF done       -183.769310967747          0.000405549069
! CAM-B3LYP def2-SVP def2/J RIJCOSX Grid4 TightSCF
%maxcore 5000
%tddft
    Mode sTDDFT
    Ethresh 5.0
    maxcore 5000
end

%pal
  nprocs 6
  end
* xyz 0 1
   C       11.52298        -4.64370         4.56949
   C       12.38533        -5.69663         4.56787
   S       11.53688        -7.19853         4.55491
   C        9.98438        -6.39440         4.55976
  Cl        8.53604        -7.27282         4.54736
   C       10.14698        -5.04192         4.56258
   C        9.28299        -3.85700         4.59124
   O        8.08393        -3.82190         4.74272
   C       10.22955        -2.69742         4.52523
   C       11.59847        -3.19701         4.57482
   C       12.76232        -2.47779         4.58603
   C       14.02028        -3.11771         4.61013
   N       15.05042        -3.62187         4.63127
   C       12.86423        -1.07211         4.58323
   N       13.01817         0.06544         4.58401
   C        9.84601        -1.39778         4.51292
   C        8.49815        -0.94597         4.28952
   C        7.66898        -1.54095         3.30651
   N        8.03121        -2.43767         2.39225
   S        6.77232        -2.75941         1.45317
   N        5.71150        -1.76933         2.13768
   C        6.29575        -1.13877         3.15548
   C        5.74713        -0.12388         3.98027
   C        6.62953         0.51508         4.84258
   C        7.95859         0.12345         4.98719
   C        4.37622         0.32618         3.92408
   N        3.26024        -0.44101         3.72739
   C        3.15227        -1.88275         3.68309
   C        2.70700        -2.36968         2.30783
   C        2.08081         0.34077         3.74772
   O        0.96399        -0.11838         3.63630
   C        2.55332         1.68884         3.95099
   C        3.96357         1.64472         4.08322
   C        4.41825         3.00096         4.29155
   O        5.51908         3.47661         4.47523
   N        3.23596         3.77891         4.28195
   C        3.33494         5.21241         4.41101
   C        3.14264         5.92197         3.07291
   C        2.11831         3.00235         4.07814
   C        0.73727         3.34706         4.02604
   C        0.13122         4.53873         4.21588
   C       -1.29518         4.75640         4.17685
   C       -1.78611         6.02553         4.48872
   C       -3.14454         6.29501         4.48349
   N       -3.54402         7.64514         4.78139
   O       -2.73948         8.35264         5.35002
   O       -4.65296         8.00737         4.44164
   C       -4.08777         5.30190         4.16193
   C       -3.58151         4.03572         3.83680
   C       -2.23397         3.76602         3.84365
   C       -5.51621         5.51131         4.22693
   C       -6.39564         4.93771         3.38113
   C       -7.80556         5.15482         3.40482
   C       -8.63626         5.46770         4.43185
   C      -10.00005         5.99628         4.09110
   O      -10.52043         5.97657         3.00274
   C      -10.50289         6.55535         5.34934
   C      -11.59310         7.25612         5.77110
   S      -11.48390         7.58362         7.48480
   C       -9.97384         6.75850         7.61210
   C       -9.57736         6.27001         6.40638
   C       -8.47671         5.48593         5.87648
   C       -7.61791         4.75467         6.65360
   C       -7.65494         4.82960         8.06228
   N       -7.66265         4.88712         9.20793
   C       -6.67783         3.82586         6.17275
   N       -5.90871         3.04163         5.83927
  Cl      -12.91647         7.78266         4.85530
   H       13.45722        -5.69919         4.57541
   H       10.58041        -0.62194         4.68975
   H        6.26566         1.33416         5.44147
   H        8.57479         0.63703         5.70984
   H        2.39897        -2.17128         4.42459
   H        4.11029        -2.31928         3.96301
   H        1.73067        -1.95589         2.07178
   H        2.63700        -3.45366         2.31205
   H        3.42342        -2.06277         1.55182
   H        4.34795         5.40367         4.77884
   H        2.62421         5.56723         5.16161
   H        3.92345         5.61788         2.38023
   H        3.20549         6.99740         3.21451
   H        2.17824         5.68005         2.63182
   H        0.12961         2.47356         3.82854
   H        0.70794         5.42360         4.43564
   H       -1.10907         6.83023         4.73793
   H       -4.28245         3.24406         3.62622
   H       -1.90163         2.77133         3.59385
   H       -5.88039         6.21003         4.96792
   H       -6.02607         4.36181         2.54288
   H       -8.29888         5.12050         2.43691
   H       -9.48405         6.70294         8.56396
*
