# ORCA input file
# SCF done       -187.900196615144          0.000837389483
! CAM-B3LYP def2-SVP def2/J RIJCOSX Grid4 TightSCF
%maxcore 5000
%tddft
    Mode sTDDFT
    Ethresh 5.0
    maxcore 5000
end

%pal
  nprocs 6
  end
* xyz 0 1
   C       -1.50801         4.86705         3.42811
   C       -2.57968         5.45055         2.80541
   C       -3.23098         6.60579         3.28625
   N       -3.78112         7.55654         3.61887
   C       -3.21300         4.91426         1.66438
   N       -3.77965         4.49992         0.75652
   C       -1.00082         5.22836         4.74600
   C       -0.26849         4.12114         5.26760
   C        0.28065         4.15193         6.51729
   C        0.12668         5.31186         7.30988
   C       -0.58596         6.42917         6.78479
   C       -1.14667         6.36905         5.48853
   C       -0.72875         7.58130         7.58436
   C       -0.19882         7.62799         8.84501
   C        0.50110         6.52744         9.36200
   C        0.66086         5.39453         8.61090
   C       -0.22732         3.04263         4.26337
   O        0.25807         1.94255         4.36550
   C       -0.86457         3.62800         3.04182
   C       -0.67543         3.04290         1.83041
   C       -0.83508         3.63190         0.55175
   O       -0.86716         4.96983         0.39503
   C       -0.98184         5.23436        -0.92899
   C       -1.02424         4.04989        -1.64606
   C       -0.91624         3.01328        -0.70513
   C       -0.89758         1.58123        -0.97573
   O       -0.80805         0.71777        -0.14126
   C       -1.05029         6.55607        -1.44047
   N       -0.98607         7.72099        -0.71827
   C       -0.79008         7.86740         0.70273
   C        0.65665         7.62148         1.12006
   C       -1.14097         8.85667        -1.54813
   O       -1.11792         9.99528        -1.13549
   C       -1.31243         8.30319        -2.87036
   C       -1.23928         6.89282        -2.77708
   C       -1.45657         6.35708        -4.10098
   O       -1.44909         5.22096        -4.52946
   N       -1.70015         7.48882        -4.90760
   C       -1.85976         7.32303        -6.33353
   C       -0.69590         7.91859        -7.11910
   C       -1.61894         8.65633        -4.18123
   C       -1.85416        10.00024        -4.57443
   C       -2.52004        10.46086        -5.66150
   C       -2.77187        11.83881        -5.90551
   S       -3.95912        12.28671        -7.10048
   C       -3.72518        13.97580        -6.78557
   C       -2.73791        14.15563        -5.80908
   C       -2.21723        12.95561        -5.31041
   C       -2.32809        15.42812        -5.37119
   N       -1.98745        16.46366        -5.01641
   C       -4.48410        14.98666        -7.41603
   C       -5.53829        14.73381        -8.23764
   C       -6.32213        15.76320        -8.80362
   C       -7.45697        15.55235        -9.53460
   C       -8.32389        16.56565       -10.10889
   C       -8.07066        17.91003       -10.19622
   C       -8.95171        18.84353       -10.78213
   N       -9.62548        19.65456       -11.23602
   C       -6.89811        18.55445        -9.74894
   N       -5.96999        19.14947        -9.42766
   C       -9.51310        15.89424       -10.62181
   C       -9.35649        14.49008       -10.44286
   C       -8.06413        14.21798        -9.79359
   O       -7.60674        13.12701        -9.52183
   C      -10.31714        13.60044       -10.82955
   C      -11.50579        14.08360       -11.42012
   C      -11.67310        15.48736       -11.59886
   C      -10.65865        16.38405       -11.19182
   C      -12.86545        15.95939       -12.18454
   C      -13.84604        15.08857       -12.57504
   C      -13.68017        13.70669       -12.39833
   C      -12.53474        13.21483       -11.83355
   H        0.82370         3.30022         6.89887
   H       -1.67393         7.23148         5.11102
   H       -1.27201         8.42430         7.18337
   H       -0.31710         8.51333         9.45141
   H        0.91278         6.58170        10.35855
   H        1.19836         4.54424         9.00417
   H       -0.29899         2.02546         1.82649
   H       -1.12523         3.96768        -2.71055
   H       -0.96337         1.34451        -2.05305
   H       -1.46371         7.18984         1.23245
   H       -1.07057         8.89890         0.93560
   H        0.96170         6.60250         0.89453
   H        0.75972         7.78498         2.18949
   H        1.31744         8.30891         0.59750
   H       -2.81400         7.74613        -6.65861
   H       -1.89698         6.24101        -6.49400
   H       -0.61684         8.99082        -6.95619
   H       -0.84123         7.73644        -8.18020
   H        0.23701         7.45210        -6.81211
   H       -1.51926        10.71038        -3.82971
   H       -2.95621         9.78080        -6.37714
   H       -1.45619        12.91489        -4.55235
   H       -4.20779        16.00849        -7.18264
   H       -5.81673        13.71038        -8.44940
   H       -6.00323        16.77854        -8.60467
   H      -10.17253        12.54035       -10.68243
   H      -10.81900        17.44046       -11.33694
   H      -12.98854        17.02403       -12.31892
   H      -14.75578        15.45999       -13.02237
   H      -14.46462        13.03408       -12.71148
   H      -12.40136        12.15194       -11.69440
*
