# ORCA input file
# SCF done       -187.598920878369          0.000692450854
! CAM-B3LYP def2-SVP def2/J RIJCOSX Grid4 TightSCF
%maxcore 5000
%tddft
    Mode sTDDFT
    Ethresh 5.0
    maxcore 5000
end

%pal
  nprocs 6
  end
* xyz 0 1
   C        0.06953         0.23889        -1.33315
   C       -0.99770         0.96927        -1.77818
   C       -1.75241         0.63086        -2.92140
   N       -2.39274         0.39820        -3.84460
   C       -1.52839         2.08887        -1.10340
   N       -2.03745         2.97072        -0.57392
   C        0.49728        -1.04648        -1.87160
   C        1.27173        -1.72092        -0.88193
   C        1.78082        -2.96938        -1.09884
   C        1.54308        -3.60509        -2.33796
   C        0.78441        -2.92863        -3.33721
   C        0.26483        -1.63891        -3.08407
   C        0.56164        -3.57128        -4.57216
   C        1.06013        -4.82299        -4.80967
   C        1.80608        -5.48871        -3.82523
   C        2.04212        -4.89311        -2.61609
   C        1.41163        -0.85607         0.30192
   O        1.94069        -1.10882         1.35848
   C        0.81070         0.45395        -0.09998
   C        1.10442         1.56789         0.60436
   C        0.93354         2.94599         0.20561
   C        0.65097         3.91261         1.19309
   C        0.45539         5.23859         0.89182
   C        0.58319         5.61592        -0.44270
   C        0.90947         4.65099        -1.42787
   C        1.08495         3.31892        -1.13090
   O        0.98418         5.28711        -2.61251
   C        0.69842         6.58390        -2.32554
   N        0.46186         6.82188        -1.06381
   C        0.68622         7.51080        -3.40895
   N        0.39674         8.84425        -3.29677
   C        0.01037         9.54857        -2.09756
   C       -1.46750         9.34532        -1.77984
   C        0.45323         9.48716        -4.54736
   O        0.23578        10.67278        -4.70325
   C        0.82153         8.44071        -5.47466
   C        0.96215         7.23435        -4.73915
   C        1.34535         6.18298        -5.66241
   O        1.58263         5.00617        -5.51746
   N        1.40059         6.83756        -6.91261
   C        1.79124         6.12937        -8.10763
   C        3.24653         6.40243        -8.47947
   C        1.09397         8.17274        -6.81433
   C        1.05419         9.05188        -7.92732
   C        0.71989        10.36120        -7.81952
   C        0.66307        11.20631        -8.96008
   S        0.11855        12.87336        -8.87829
   C        0.39127        12.91108       -10.61401
   N        0.84002        11.77257       -11.07248
   N        0.98555        10.84625       -10.17666
   C        0.11217        14.06110       -11.40446
   C        0.34978        14.08359       -12.73602
   C        0.08407        15.16631       -13.62130
   C       -0.91849        16.08594       -13.55590
   C       -1.11473        17.16581       -14.51290
   C       -0.14738        17.72356       -15.30497
   C       -0.37948        18.79336       -16.19506
   N       -0.51168        19.65687       -16.93960
   C        1.21125        17.34067       -15.30542
   N        2.33288        17.09913       -15.34245
   C       -2.49732        17.60940       -14.41065
   C       -3.11574        16.90961       -13.33579
   C       -2.14481        15.99421       -12.71132
   O       -2.33942        15.29748       -11.74005
   C       -4.42149        17.11846       -12.99573
   C       -5.18398        18.05134       -13.73323
   C       -4.57450        18.75005       -14.81568
   C       -3.21935        18.51536       -15.14213
   C       -5.34768        19.67355       -15.54851
   C       -6.65890        19.89838       -15.22848
   C       -7.25743        19.21100       -14.16186
   C       -6.53556        18.30788       -13.42966
   H        2.35938        -3.46631        -0.33433
   H       -0.29524        -1.14288        -3.86143
   H       -0.01555        -3.05561        -5.32547
   H        0.88216        -5.30785        -5.75780
   H        2.19305        -6.47561        -4.03023
   H        2.61598        -5.40080        -1.85468
   H        1.57757         1.39902         1.56677
   H        0.55310         3.57915         2.21521
   H        0.21482         5.96669         1.64836
   H        1.35339         2.60934        -1.89702
   H        0.21034        10.60629        -2.28882
   H        0.62254         9.19159        -1.26803
   H       -2.08123         9.66742        -2.61768
   H       -1.73505         9.93030        -0.90501
   H       -1.66557         8.29755        -1.57150
   H        1.12287         6.40059        -8.92916
   H        1.66263         5.06680        -7.88286
   H        3.40893         7.46096        -8.66890
   H        3.50764         5.84347        -9.37363
   H        3.90161         6.08961        -7.67005
   H        1.28527         8.66112        -8.90737
   H        0.47520        10.79756        -6.86101
   H       -0.28565        14.91782       -10.88523
   H        0.83792        13.22041       -13.17049
   H        0.73318        15.20293       -14.48955
   H       -4.86724        16.57706       -12.17448
   H       -2.78748        19.05300       -15.97142
   H       -4.88202        20.20157       -16.36763
   H       -7.24260        20.60770       -15.79576
   H       -8.29339        19.40028       -13.92372
   H       -6.99095        17.77554       -12.60746
*
