# ORCA input file
# SCF done       -220.807229499635          0.000524150889
! CAM-B3LYP def2-SVP def2/J RIJCOSX Grid4 TightSCF
%maxcore 5000
%tddft
    Mode sTDDFT
    Ethresh 5.0
    maxcore 5000
end

%pal
  nprocs 6
  end
* xyz 0 1
   C        3.86176         3.25358        -2.07219
   C        3.98967         4.61303        -1.97247
   C        4.69056         5.39955        -2.91018
   N        5.23929         6.08095        -3.65331
   C        3.51127         5.38453        -0.89297
   N        3.19662         6.07251        -0.02912
   C        4.53428         2.40735        -3.05028
   C        4.55578         1.06964        -2.55596
   C        5.14680         0.05715        -3.25534
   C        5.74270         0.33829        -4.50548
   C        5.71084         1.67012        -5.01164
   C        5.09858         2.70082        -4.26290
   C        6.30046         1.93489        -6.26457
   C        6.89547         0.93455        -6.98366
   C        6.92736        -0.37614        -6.48423
   C        6.36419        -0.66759        -5.27156
   C        3.84662         1.01345        -1.26407
   O        3.71926         0.06879        -0.52148
   C        3.25112         2.37198        -1.09185
   C        2.23754         2.56998        -0.22043
   C        1.32835         3.68513        -0.19128
   C        0.86289         4.30180        -1.34021
   C       -0.00058         5.38644        -1.27517
   C       -0.40390         5.93065        -0.06621
   C       -0.01242         5.27749         1.13343
   C        0.83916         4.14564         1.06035
   N        1.22168         3.50718         2.17979
   C        0.75474         3.90457         3.33317
   C        1.22280         3.17172         4.55454
   C        2.15257         2.01365         4.21771
   C       -0.16152         4.99850         3.40452
   C       -0.82348         5.39188         4.69041
   C       -2.12245         4.60115         4.86998
   N       -0.50272         5.66259         2.32985
   C       -1.27659         7.08756        -0.12175
   N       -1.14141         8.25427         0.57057
   C       -0.06316         8.62700         1.45681
   C       -0.57862         8.84957         2.87358
   C       -2.13254         9.19516         0.20476
   O       -2.17663        10.32126         0.65745
   C       -2.94312         8.50373        -0.77167
   C       -2.36802         7.21583        -0.96403
   C       -3.15727         6.50701        -1.94401
   O       -3.06255         5.39906        -2.43158
   N       -4.16930         7.42259        -2.28919
   C       -5.14270         7.09920        -3.30271
   C       -4.79126         7.72427        -4.65127
   C       -4.05065         8.61551        -1.60659
   C       -4.94320         9.70270        -1.79200
   C       -4.82709        10.87275        -1.11787
   C       -5.67453        12.01591        -1.27988
   C       -6.66388        12.14884        -2.24968
   C       -7.43025        13.29675        -2.37485
   C       -7.25162        14.39822        -1.54085
   C       -6.25663        14.29209        -0.51517
   C       -5.48421        13.11612        -0.38821
   N       -4.56512        13.01790         0.58657
   C       -4.38787        14.01699         1.40996
   C       -3.38445        13.79384         2.49884
   C       -4.07165        13.23457         3.74723
   C       -5.14721        15.21765         1.26615
   C       -4.94179        16.39712         2.16728
   C       -5.85928        17.56445         1.83040
   N       -6.04626        15.32547         0.32093
   C       -8.00726        15.60824        -1.56530
   C       -8.84735        16.16253        -2.48652
   C       -9.53830        17.42461        -2.24888
   C       -9.77830        18.00315        -1.03031
   C      -10.46809        19.22241        -0.86374
   N      -11.01533        20.21212        -0.66536
   C       -9.43780        17.45913         0.22639
   N       -9.24088        17.09531         1.29831
   C      -10.02537        17.92325        -3.52770
   C       -9.76419        16.93592        -4.51765
   C       -9.08399        15.78095        -3.90327
   O       -8.78296        14.75718        -4.48144
   C      -10.12131        17.10882        -5.82357
   C      -10.76364        18.30679        -6.20817
   C      -11.02043        19.30542        -5.22501
   C      -10.64242        19.09486        -3.87904
   C      -11.65754        20.49907        -5.62118
   C      -12.02510        20.69791        -6.92400
   C      -11.77220        19.71351        -7.89100
   C      -11.15535        18.54339        -7.54047
   H        5.15761        -0.94826        -2.86141
   H        5.07793         3.69841        -4.67348
   H        6.27579         2.94618        -6.64323
   H        7.34527         1.14764        -7.94181
   H        7.39998        -1.15365        -7.06556
   H        6.38564        -1.67499        -4.88229
   H        2.06690         1.79193         0.51488
   H        1.15857         3.92113        -2.30725
   H       -0.34827         5.83785        -2.19098
   H        0.35406         2.80251         5.10581
   H        1.74156         3.88360         5.20432
   H        1.63989         1.28662         3.59431
   H        2.48527         1.52331         5.12921
   H        3.02003         2.37363         3.67223
   H       -1.06201         6.45461         4.65668
   H       -0.15727         5.21030         5.53387
   H       -2.79960         4.80802         4.04483
   H       -2.60806         4.88633         5.79981
   H       -1.92927         3.53080         4.89454
   H        0.37560         9.55635         1.07743
   H        0.69315         7.84194         1.43310
   H       -1.09900         7.95742         3.20816
   H       -1.26600         9.69092         2.88860
   H        0.25190         9.05652         3.54268
   H       -6.13750         7.41254        -2.97326
   H       -5.13012         6.00903        -3.39260
   H       -4.74984         8.80909        -4.58226
   H       -5.53656         7.44751        -5.39194
   H       -3.82094         7.36328        -4.98302
   H       -5.74190         9.56110        -2.50561
   H       -4.04052        10.99179        -0.38394
   H       -6.84539        11.34090        -2.94202
   H       -8.18028        13.33807        -3.14675
   H       -2.86574        14.72172         2.74243
   H       -2.66449        13.05871         2.13664
   H       -4.83182        13.91841         4.11925
   H       -3.33932        13.07049         4.53370
   H       -4.54701        12.28600         3.51088
   H       -3.89562        16.71092         2.09174
   H       -5.10954        16.08164         3.20028
   H       -5.68197        17.90148         0.81233
   H       -5.67621        18.39228         2.51103
   H       -6.90054        17.26487         1.91366
   H       -7.82017        16.20019        -0.67502
   H       -9.91502        16.34099        -6.55455
   H      -10.84531        19.87240        -3.15990
   H      -11.85160        21.25338        -4.87274
   H      -12.51329        21.61536        -7.21705
   H      -12.06835        19.88720        -8.91481
   H      -10.95780        17.78159        -8.28058
*
