# ORCA input file
# SCF done       -152.713147463917          0.000679968161
! CAM-B3LYP def2-SVP def2/J RIJCOSX Grid4 TightSCF
%maxcore 5000
%tddft
    Mode sTDDFT
    Ethresh 5.0
    maxcore 5000
end

%pal
  nprocs 6
  end
* xyz 0 1
   C       -0.45205         1.01103        -0.49814
   S       -0.60079        -0.46068        -1.38267
   C       -0.64291        -1.38645         0.06991
   C       -0.53517        -0.56737         1.19260
   C       -0.43422         0.81034         0.83763
   C       -0.40339        -1.09869         2.53024
   O       -0.23083        -2.25351         2.83930
   C       -0.45936        -0.02861         3.66246
   F       -1.54992         0.75264         3.56413
   F       -0.48739        -0.59151         4.86580
   F        0.60540         0.79359         3.63321
   C       -0.82408        -2.81379         0.00269
   C       -0.11870        -3.60604        -0.91097
   N       -0.27933        -4.90477        -1.00240
   C       -1.15525        -5.48166        -0.17399
   N       -1.90669        -4.80777         0.69999
   C       -1.76013        -3.51493         0.78687
   C       -1.35405        -6.90911        -0.20006
   N       -0.70773        -7.79722        -1.02029
   C        0.33733        -7.52301        -1.97740
   C        1.69228        -7.35555        -1.29687
   C       -1.13640        -9.11934        -0.79144
   O       -0.70649       -10.07714        -1.40142
   C       -2.13042        -8.99773         0.25037
   C       -2.24348        -7.62232         0.59015
   C       -3.25399        -7.49861         1.62747
   O       -3.72510        -6.56262         2.22477
   N       -3.67616        -8.83493         1.84443
   C       -4.65477        -9.14847         2.85638
   C       -4.00815        -9.71321         4.11947
   C       -3.01705        -9.72523         1.03662
   C       -3.27077       -11.12624         1.05624
   C       -2.63567       -12.02237         0.27454
   C       -2.94432       -13.43664         0.35075
   N       -2.32270       -14.23946        -0.51550
   C       -2.60493       -15.52634        -0.45607
   C       -3.50264       -16.04997         0.46190
   C       -4.10165       -15.13880         1.34151
   N       -3.81588       -13.84062         1.27210
   C       -5.04315       -15.57656         2.35481
   C       -5.57908       -14.72673         3.24557
   C       -6.50668       -15.08105         4.27650
   S       -7.07470       -13.84491         5.37944
   C       -8.04055       -14.95251         6.22331
   C       -7.95191       -16.22623         5.69806
   C       -7.07159       -16.28594         4.58453
   C       -8.64515       -17.40736         6.17397
   O       -8.56554       -18.51091         5.69763
   C       -9.56008       -17.17423         7.41259
   F      -10.52195       -16.26875         7.15614
   F      -10.16165       -18.29050         7.80707
   F       -8.86271       -16.70154         8.46192
   H       -0.38752         1.93880        -1.03017
   H       -0.33681         1.61269         1.54438
   H        0.61157        -3.16720        -1.58086
   H       -2.41991        -3.00344         1.47325
   H        0.08288        -6.62291        -2.53815
   H        0.36379        -8.38751        -2.64689
   H        1.67527        -6.49820        -0.62927
   H        2.46147        -7.19884        -2.04750
   H        1.93790        -8.24725        -0.72517
   H       -5.39247        -9.84663         2.45041
   H       -5.15425        -8.20433         3.09196
   H       -3.46154       -10.62863         3.90401
   H       -4.77324        -9.92688         4.86075
   H       -3.31459        -8.98706         4.53558
   H       -4.02380       -11.49465         1.73810
   H       -1.87928       -11.73341        -0.44074
   H       -2.09088       -16.15655        -1.17061
   H       -3.72658       -17.10330         0.50354
   H       -5.28659       -16.62867         2.36134
   H       -5.28927       -13.68665         3.19191
   H       -8.62347       -14.61390         7.05699
   H       -6.88875       -17.20271         4.05651
*
