# ORCA input file
# SCF done       -146.276927924710          0.000616211960
! CAM-B3LYP def2-SVP def2/J RIJCOSX Grid4 TightSCF
%maxcore 5000
%tddft
    Mode sTDDFT
    Ethresh 5.0
    maxcore 5000
end

%pal
  nprocs 6
  end
* xyz 0 1
   C       -4.07759         7.38483        -1.86601
   O       -4.81494         7.29404        -2.97568
   C       -4.04156         6.72599        -3.92114
   C       -2.80750         6.44844        -3.43412
   C       -2.81278         6.87875        -2.06949
   C       -1.76158         6.80728        -1.09974
   C       -0.52620         6.31729        -1.34369
   C        0.49568         6.23690        -0.36217
   C        1.72390         5.72807        -0.63772
   C        2.78087         5.60389         0.29412
   S        2.61645         6.14903         1.93329
   C        4.24176         5.65473         2.27476
   N        4.75033         5.84792         3.56241
   O        5.89843         5.49417         3.77439
   O        4.00942         6.36043         4.38469
   C        4.87706         5.10143         1.19276
   C        4.05978         5.05962         0.05085
   C        4.43476         4.53117        -1.22569
   C        5.64347         4.06990        -1.60226
   C        5.82317         3.59748        -2.94060
   N        7.01773         3.17657        -3.47546
   C        6.86926         2.82085        -4.77915
   C        5.54275         3.00923        -5.11461
   C        4.89400         3.49504        -3.95224
   S        3.17737         3.70374        -4.33025
   O        2.75641         5.07917        -4.23837
   O        2.36213         2.74751        -3.62995
   C        3.41454         3.20213        -6.06048
   C        4.70703         2.86269        -6.26908
   C        2.27609         3.23549        -6.89681
   C        2.25970         3.00427        -8.23346
   C        1.09425         3.06848        -9.03739
   S       -0.45477         3.39350        -8.32212
   C       -1.19856         3.29332        -9.87924
   N       -2.58453         3.49248        -9.97698
   O       -3.09013         3.40363       -11.08026
   O       -3.18154         3.74004        -8.94469
   C       -0.31516         3.02816       -10.89174
   C        1.00981         2.89764       -10.43256
   C        2.14450         2.64683       -11.27330
   C        2.11157         2.49719       -12.61240
   C        3.27059         2.27753       -13.41363
   C        3.31254         2.13740       -14.77160
   C        4.61856         1.95023       -15.29042
   C        5.59984         1.94833       -14.26469
   S        4.87466         2.17511       -12.69755
   C        6.94329         1.78925       -14.52392
   C        7.33517         1.62749       -15.85025
   C        6.35563         1.62839       -16.87658
   C        5.01150         1.78530       -16.61768
   S        7.09005         1.41404       -18.44372
   C        8.66141         1.32919       -17.72025
   C        8.64850         1.45281       -16.37735
   H       -4.53469         7.81806        -0.99808
   H       -4.48071         6.57148        -4.88656
   H       -1.99700         5.99557        -3.96495
   H       -2.00595         7.17553        -0.11130
   H       -0.27480         5.95378        -2.33021
   H        0.26949         6.59102         0.63660
   H        1.91539         5.39084        -1.64710
   H        5.88754         4.74056         1.24695
   H        3.65678         4.50824        -1.97283
   H        6.49630         4.05415        -0.94011
   H        7.88583         3.14275        -2.96423
   H        7.69498         2.46759        -5.36364
   H        5.10124         2.50847        -7.20864
   H        1.35588         3.49377        -6.38723
   H        3.18653         2.76329        -8.73294
   H       -0.63086         2.93966       -11.91469
   H        3.10744         2.58601       -10.78628
   H        1.18035         2.54669       -13.15858
   H        2.43432         2.17049       -15.39189
   H        7.67270         1.79146       -13.72938
   H        4.28195         1.78373       -17.41181
   H        9.51008         1.19007       -18.36146
   H        9.53048         1.42475       -15.76297
*
