# ORCA input file
# SCF done       -173.574973206151          0.000990555820
! CAM-B3LYP def2-SVP def2/J RIJCOSX Grid4 TightSCF
%maxcore 5000
%tddft
    Mode sTDDFT
    Ethresh 5.0
    maxcore 5000
end

%pal
  nprocs 6
  end
* xyz 0 1
   C       -5.82634         4.56262        -2.59601
   O       -6.58304         4.22015        -3.64670
   C       -5.88915         3.30633        -4.34959
   C       -4.69140         3.05347        -3.76656
   C       -4.63328         3.87901        -2.60031
   C       -3.58479         4.00111        -1.62858
   C       -2.41706         3.32706        -1.65565
   C       -1.40207         3.49079        -0.67192
   C       -0.21919         2.83139        -0.70009
   C        0.80496         3.01342         0.27876
   C        2.02417         2.38077         0.26338
   O        2.99735         2.61877         1.22582
   C        2.65895         3.50222         2.20173
   C        1.39026         4.14957         2.22291
   C        1.24614         4.99106         3.27591
   S        2.66172         5.00736         4.26184
   C        3.45352         3.86607         3.23795
   O        0.45244         3.92060         1.26568
   C        2.44106         1.42941        -0.71537
   C        3.67367         0.86638        -0.70479
   C        4.11678        -0.11088        -1.63585
   O        3.23114        -0.69042        -2.48616
   C        3.88710        -1.64575        -3.16465
   C        5.18713        -1.71514        -2.77973
   C        5.36968        -0.70699        -1.79132
   C        6.61066        -0.39516        -1.14126
   C        6.95248         0.81007        -0.64929
   C        8.19511         1.07868         0.00989
   C        8.52899         2.29269         0.47477
   C        9.74833         2.59107         1.21859
   C        9.61542         3.21425         2.46630
   C       10.68692         3.41700         3.31051
   C       11.96520         3.02783         2.92824
   C       12.13251         2.48149         1.67676
   C       11.04422         2.26601         0.82036
   N       11.51061         1.76187        -0.39275
   C       10.76850         1.61820        -1.61706
   C       12.87164         1.61293        -0.38350
   O       13.52717         1.22175        -1.32161
   C       13.38999         2.08399         0.96924
   C       14.34636         3.27697         0.74807
   C       14.90400         3.75685         2.08696
   O       15.58553         3.13336         2.86441
   N       14.46723         5.04062         2.28261
   C       14.76501         5.80714         3.46184
   C       13.70406         5.48797         1.21672
   C       13.08131         6.70494         1.05007
   C       12.36368         6.93874        -0.13393
   C       12.30842         5.93632        -1.10888
   C       12.93597         4.71434        -0.92900
   C       13.62751         4.48613         0.24028
   C       11.71496         8.21953        -0.28980
   C       11.05320         8.66526        -1.37677
   C       10.43696         9.94662        -1.46466
   S       10.48110        11.03816        -0.11423
   C        9.59152        12.20813        -1.02169
   N        9.27715        13.43089        -0.41375
   O        8.65181        14.24344        -1.06988
   O        9.65998        13.59367         0.73186
   C        9.28014        11.78803        -2.28802
   C        9.75610        10.49331        -2.56119
   C        9.56622         9.80692        -3.82391
   C        8.97258        10.32255        -4.89578
   H       -6.22223         5.29049        -1.91545
   H       -6.35065         2.91705        -5.23540
   H       -3.94323         2.37174        -4.11308
   H       -3.77495         4.70019        -0.82438
   H       -2.21698         2.62735        -2.45561
   H       -1.59807         4.18756         0.13057
   H       -0.02043         2.13717        -1.50010
   H        0.40071         5.59582         3.52792
   H        4.44470         3.53058         3.45972
   H        1.74439         1.15797        -1.48973
   H        4.37702         1.13925         0.06545
   H        3.32463        -2.20465        -3.88663
   H        5.93724        -2.37972        -3.15725
   H        7.32711        -1.20669        -1.09683
   H        6.28052         1.64867        -0.76452
   H        8.86578         0.24230         0.15922
   H        7.81168         3.10137         0.40140
   H        8.62501         3.50620         2.78377
   H       10.52941         3.87215         4.27627
   H       12.80505         3.15499         3.59296
   H       10.14138         2.49478        -1.78234
   H       10.13808         0.72878        -1.61016
   H       11.49899         1.52325        -2.42184
   H       13.94168         1.29142         1.48204
   H       15.15295         2.94478         0.08798
   H       15.39247         5.18931         4.10332
   H       13.84620         6.06746         3.99150
   H       15.30235         6.72072         3.20100
   H       13.13904         7.47227         1.80633
   H       11.76341         6.10787        -2.02293
   H       12.89032         3.95966        -1.69856
   H       11.78805         8.88036         0.56595
   H       10.97367         8.04117        -2.25356
   H        8.72724        12.40393        -2.97249
   H        9.94647         8.79695        -3.87503
   H        8.57293        11.32074        -4.91861
   H        8.86654         9.74948        -5.80011
*
