# ORCA input file
# SCF done       -174.358487849801          0.000644381175
! CAM-B3LYP def2-SVP def2/J RIJCOSX Grid4 TightSCF
%maxcore 5000
%tddft
    Mode sTDDFT
    Ethresh 5.0
    maxcore 5000
end

%pal
  nprocs 6
  end
* xyz 0 1
   C        6.69225         0.49077         9.45966
   S        6.66722        -1.11473        10.02618
   C        6.79679        -1.78549         8.40828
   C        6.94407        -0.73517         7.47970
   C        6.84091         0.55603         8.08866
   C        6.89816         1.71162         7.28459
   C        7.09168         1.62459         5.92956
   O        7.11113         2.81598         5.27275
   C        6.94658         2.88999         3.87353
   C        7.31545         0.33508         5.33716
   O        7.60733         0.30597         4.00610
   C        7.76662        -0.94076         3.36862
   C        7.25642        -0.79756         6.11345
   C        6.66207        -3.17775         8.31697
   C        6.29647        -3.98815         7.26245
   C        6.15130        -5.39369         7.33001
   C        5.70468        -5.98196         6.17774
   C        5.47848        -5.07177         5.13298
   S        5.81649        -3.44362         5.66755
   C        5.10168        -5.27047         3.81083
   C        4.72519        -6.43402         3.12343
   C        4.44624        -6.22368         1.79785
   C        4.59874        -4.88835         1.37618
   S        5.08959        -3.89455         2.72800
   C        4.41499        -4.37490         0.10598
   C        4.63257        -3.05817        -0.27959
   S        5.22033        -1.77616         0.77404
   C        5.22479        -0.52661        -0.48324
   C        4.77185        -1.11600        -1.68991
   C        4.46064        -2.49147        -1.54283
   O        4.05506        -3.02971        -2.70438
   C        4.10715        -2.01283        -3.60942
   N        3.73611        -2.29790        -4.92560
   O        3.80277        -1.37617        -5.73324
   O        3.36873        -3.42725        -5.19531
   C        4.53700        -0.82728        -3.04774
   C        5.66094         0.71688        -0.07934
   C        5.73398         1.94647        -0.72555
   C        6.25285         3.10417        -0.11977
   C        6.19777         4.22688        -0.90417
   C        5.62455         4.00905        -2.16443
   S        5.17436         2.32520        -2.33432
   C        5.38965         4.93686        -3.17380
   C        5.70311         6.30860        -3.15593
   C        5.31069         6.95645        -4.28870
   C        4.67025         6.13360        -5.25369
   S        4.57833         4.49448        -4.66230
   C        4.23018         6.62558        -6.45813
   C        3.61376         6.02474        -7.58282
   C        3.35804         6.83359        -8.69636
   C        2.77256         6.34694        -9.84780
   C        2.40591         5.01337        -9.99817
   C        2.66386         4.14583        -8.89715
   C        3.22480         4.65345        -7.69028
   N        3.36348         3.83536        -6.64015
   C        3.04007         2.56441        -6.72557
   C        3.14583         1.74872        -5.47655
   C        2.04055         2.12153        -4.48654
   C        2.60875         2.03512        -7.97202
   C        2.33714         0.58053        -8.20789
   C        0.93193         0.19490        -7.74025
   N        2.41470         2.82928        -8.99510
   C        1.79793         4.60461       -11.24692
   C        1.28186         3.41370       -11.54608
   H        6.59815         1.30492        10.14991
   H        6.78567         2.68656         7.73033
   H        6.08767         2.30405         3.53727
   H        7.84327         2.56102         3.34305
   H        6.76733         3.94594         3.66740
   H        6.87304        -1.56357         3.47136
   H        8.63710        -1.47952         3.75383
   H        7.92440        -0.71098         2.31591
   H        7.48628        -1.75094         5.67692
   H        6.77344        -3.70020         9.26134
   H        6.38597        -5.93460         8.23020
   H        5.55064        -7.03944         6.05745
   H        4.66389        -7.39097         3.61054
   H        4.14447        -6.99640         1.11293
   H        4.07904        -5.04971        -0.66981
   H        4.65723         0.09618        -3.57254
   H        5.99869         0.75034         0.95111
   H        6.65314         3.08396         0.87886
   H        6.54891         5.19447        -0.59447
   H        6.20271         6.78464        -2.33048
   H        5.46283         8.00708        -4.46697
   H        4.40985         7.68962        -6.58089
   H        3.63156         7.87842        -8.64993
   H        2.59525         7.02888       -10.66802
   H        4.11230         1.96237        -5.01752
   H        3.09953         0.68799        -5.70882
   H        1.05858         1.92970        -4.91378
   H        2.10433         3.17619        -4.23265
   H        2.14362         1.53668        -3.57594
   H        3.07353        -0.03479        -7.69041
   H        2.41647         0.39889        -9.28088
   H        0.82906         0.33241        -6.66737
   H        0.74398        -0.85058        -7.96982
   H        0.18315         0.80377        -8.24307
   H        1.76440         5.39266       -11.99208
   H        1.28824         2.60537       -10.83883
   H        0.84580         3.22929       -12.51387
*
