# ORCA input file
# SCF done       -190.509329746338          0.000914604336
! CAM-B3LYP def2-SVP def2/J RIJCOSX Grid4 TightSCF
%maxcore 5000
%tddft
    Mode sTDDFT
    Ethresh 5.0
    maxcore 5000
end

%pal
  nprocs 6
  end
* xyz 0 1
   C        4.63604         6.04290        -4.37148
   C        5.03319         4.74141        -4.45637
   C        3.93254         3.85346        -4.70031
   C        2.73975         4.48827        -4.80635
   S        2.93712         6.18947        -4.59621
   C        4.40654         2.46405        -4.76453
   O        3.73358         1.47513        -4.94648
   C        5.86375         2.56048        -4.48556
   C        6.25275         3.95636        -4.44444
   C        7.54577         4.40960        -4.53962
   N        7.94060         5.76479        -4.33193
   O        7.24019         6.45147        -3.61251
   O        8.94615         6.14612        -4.89030
   N        8.63612         3.54693        -4.95502
   O        9.66384         3.61154        -4.32394
   O        8.43265         2.82054        -5.90348
   C        6.69906         1.54284        -4.08098
   C        6.54329         0.15559        -4.15419
   S        7.76023        -0.81949        -3.31273
   C        7.02884        -2.25214        -3.85884
   C        5.90320        -1.99603        -4.66925
   C        5.62975        -0.65609        -4.83796
   C        5.36051        -3.29966        -5.09703
   O        4.41283        -3.51835        -5.80879
   C        6.27314        -4.31755        -4.43634
   C        7.24305        -3.64099        -3.72122
   C        6.14230        -5.71421        -4.52507
   C        5.17576        -6.35304        -5.25424
   C        5.01665        -7.74730        -5.32505
   S        3.73499        -8.41057        -6.33087
   C        4.16573       -10.00169        -5.88081
   C        5.25543       -10.01605        -4.99080
   C        5.73526        -8.76163        -4.67966
   C        5.52551       -11.42930        -4.65442
   O        6.36302       -11.89159        -3.92162
   C        4.49211       -12.20478        -5.43798
   C        3.71196       -11.31229        -6.14866
   C        4.44064       -13.60608        -5.33395
   C        3.60925       -14.42126        -6.04842
   C        3.50365       -15.82967        -5.94156
   C        3.80585       -16.59185        -4.81392
   O        3.83680       -17.96366        -4.85166
   C        3.35348       -18.54039        -5.98684
   C        2.92354       -17.75921        -7.09613
   C        2.45357       -18.51239        -8.12237
   S        2.53240       -20.19035        -7.74511
   C        3.20402       -19.87316        -6.19198
   O        3.02302       -16.39718        -7.09187
   C        3.97949       -16.04356        -3.52321
   C        4.24130       -16.81800        -2.42617
   C        4.28620       -16.29800        -1.12383
   C        4.33402       -17.01703         0.04239
   C        4.77134       -16.36109         1.29874
   O        4.90172       -15.17801         1.49291
   C        5.04738       -17.48323         2.23383
   C        4.69378       -18.70192         1.62458
   C        4.12186       -18.41676         0.30470
   C        3.34432       -19.28673        -0.41886
   C        3.15103       -20.64131        -0.07666
   N        2.97823       -21.75581         0.13606
   C        2.54592       -18.92446        -1.52513
   N        1.82479       -18.69142        -2.38739
   C        4.88636       -19.90346         2.28295
   C        5.43382       -19.86818         3.55800
   C        5.77950       -18.67119         4.18094
   C        5.58323       -17.46170         3.50903
   F        5.91747       -16.32299         4.10633
   F        6.29856       -18.67925         5.41105
   F        5.63851       -21.01564         4.20815
   H        5.21727         6.91679        -4.15515
   H        1.77022         4.07360        -4.99653
   H        7.61676         1.84481        -3.58562
   H        4.81487        -0.25526        -5.41209
   H        8.03391        -4.09376        -3.15124
   H        6.86492        -6.29628        -3.96695
   H        4.47416        -5.75353        -5.81716
   H        6.55819        -8.57182        -4.01586
   H        2.88897       -11.55707        -6.79447
   H        5.16573       -14.03071        -4.65224
   H        3.02866       -13.99836        -6.85723
   H        2.07217       -18.17867        -9.06459
   H        3.44064       -20.67327        -5.52257
   H        3.78481       -14.99117        -3.39455
   H        4.42690       -17.87116        -2.57512
   H        4.35519       -15.22147        -1.00958
   H        4.63949       -20.85817         1.84866
*
