# ORCA input file
# SCF done       -180.108923514902          0.000387199430
! CAM-B3LYP def2-SVP def2/J RIJCOSX Grid4 TightSCF
%maxcore 5000
%tddft
    Mode sTDDFT
    Ethresh 5.0
    maxcore 5000
end

%pal
  nprocs 6
  end
* xyz 0 1
   C      -20.28219        -7.82742        -4.18802
   C      -19.33467        -8.58536        -3.53441
   C      -19.43908        -9.97387        -3.32649
   N      -19.45702       -11.10454        -3.12079
   C      -18.13338        -8.10850        -2.97606
   N      -17.13420        -7.81760        -2.48659
   C      -21.52682        -8.34950        -4.75227
   C      -22.24631        -7.27574        -5.32978
   C      -23.46277        -7.44185        -5.94266
   C      -23.99793        -8.73434        -5.99129
   C      -23.27201        -9.80086        -5.41418
   C      -22.04011        -9.63109        -4.79174
   S      -24.11197       -11.31305        -5.58754
   C      -25.40935       -10.50020        -6.42204
   C      -25.22562        -9.16670        -6.56442
  Br      -26.88435       -11.48991        -7.02705
   C      -21.47537        -6.02554        -5.15545
   O      -21.81010        -4.91917        -5.53475
   C      -20.24663        -6.41301        -4.43952
   C      -19.23549        -5.53591        -4.08554
   C      -19.23074        -4.17534        -4.35424
   C      -18.19121        -3.33783        -3.97863
   C      -18.09348        -1.95215        -4.21020
   C      -16.94753        -1.38386        -3.72021
   C      -16.09637        -2.30023        -3.08074
   S      -16.77972        -3.90589        -3.11733
   C      -14.86984        -2.06120        -2.46559
   C      -14.17767        -0.84536        -2.33089
   C      -12.99656        -0.96134        -1.64858
   C      -12.70923        -2.27088        -1.21684
   S      -13.98336        -3.36071        -1.71356
   C      -11.60365        -2.67166        -0.48800
   C      -11.32563        -3.95579        -0.04564
   S      -12.30283        -5.38465        -0.34627
   C      -11.25905        -6.47715         0.57290
   C      -10.16826        -5.73004         1.08710
   C      -10.23350        -4.36335         0.72811
   O       -9.19173        -3.67597         1.21281
   C       -8.44018        -4.58922         1.88427
   N       -7.26295        -4.13647         2.50276
   O       -6.59897        -4.97247         3.09652
   O       -6.98308        -2.95832         2.41067
   C       -8.98246        -5.85507         1.84209
   C      -11.67068        -7.79307         0.62320
   C      -11.18062        -8.90121         1.30330
   C      -11.76964       -10.17792         1.21990
   C      -11.17554       -11.12779         2.00560
   C      -10.08782       -10.64276         2.75010
   S       -9.83027        -8.94706         2.40659
   C       -9.30356       -11.33736         3.66371
   C       -9.44229       -12.68693         4.05179
   C       -8.54664       -13.07968         5.00195
   C       -7.65399       -12.05964         5.40887
   S       -7.98893       -10.58261         4.52664
   C       -6.66843       -12.15828         6.35995
   C       -5.82006       -11.09090         6.70349
   O       -5.92548        -9.91060         6.06199
   C       -5.00666        -9.05822         6.56488
   C       -4.28466        -9.69027         7.56044
   C       -4.80029       -10.99145         7.65471
   C       -4.36488       -12.06915         8.57585
   F       -3.81946       -13.11821         7.92481
   F       -3.45260       -11.65348         9.46016
   F       -5.38802       -12.58348         9.28874
   C       -4.90869        -7.72813         6.03275
   C       -5.69406        -7.28452         5.05096
   H      -23.98631        -6.60236        -6.37263
   H      -21.52794       -10.47814        -4.36729
   H      -25.92490        -8.51285        -7.05286
   H      -18.37532        -5.93352        -3.56052
   H      -20.06806        -3.73875        -4.87908
   H      -18.86670        -1.41386        -4.72861
   H      -16.70631        -0.33959        -3.80554
   H      -14.55692         0.07800        -2.72941
   H      -12.33093        -0.14184        -1.44325
   H      -10.88111        -1.91216        -0.21858
   H       -8.55411        -6.72145         2.29923
   H      -12.56165        -7.99891         0.04020
   H      -12.61931       -10.36260         0.58714
   H      -11.50116       -12.15013         2.06360
   H      -10.19497       -13.32891         3.63160
   H       -8.49874       -14.06605         5.42720
   H       -6.53256       -13.09394         6.87923
   H       -3.49107        -9.27393         8.14601
   H       -4.14721        -7.10697         6.48025
   H       -6.44729        -7.92370         4.62055
   H       -5.61456        -6.29211         4.64746
*
