# ORCA input file
# SCF done       -169.202411686594          0.000257612307
! CAM-B3LYP def2-SVP def2/J RIJCOSX Grid4 TightSCF
%maxcore 5000
%tddft
    Mode sTDDFT
    Ethresh 5.0
    maxcore 5000
end

%pal
  nprocs 6
  end
* xyz 0 1
   C       10.76063        -3.22797        -7.39001
   C       10.64822        -3.45204        -6.07347
   C       11.30914        -2.75739        -5.00574
   C       10.99579        -3.20496        -3.76992
   C       10.06705        -4.28257        -3.75150
   S        9.60631        -4.71052        -5.39003
   C        9.55789        -4.92898        -2.65269
   C        9.83736        -4.67189        -1.28585
   C        9.15571        -5.46989        -0.42660
   C        8.28943        -6.40789        -1.05255
   S        8.39838        -6.24046        -2.79656
   C        7.47373        -7.28471        -0.39428
   C        6.57356        -8.21738        -0.94177
   C        5.69862        -9.00633        -0.18826
   C        4.92093        -9.82995        -1.01737
   C        5.20156        -9.66720        -2.38988
   S        6.44149        -8.50427        -2.67029
   C        4.32073       -10.50445        -3.08129
   C        3.54765       -11.14243        -2.13413
   N        3.89665       -10.73243        -0.87621
   C        3.37597       -11.26379         0.35527
   C        3.90411       -12.67241         0.62448
   C        2.45624       -12.01973        -2.63911
   C        2.80008       -12.26970        -4.11329
   S        3.90481       -10.92015        -4.72929
   C        5.61441        -8.84858         1.25879
   C        6.26015        -9.58383         2.22430
   C        6.05913        -9.01933         3.51321
   C        5.19431        -7.91587         3.50714
   S        4.67772        -7.50865         1.91001
   C        5.10036        -7.47088         4.83447
   C        5.92396        -8.28110         5.58098
   N        6.51085        -9.23510         4.79191
   C        7.68816        -9.98108         5.16224
   C        8.95599        -9.15877         4.93929
   C        6.04498        -7.97432         7.03222
   C        4.89189        -7.00606         7.33463
   S        4.29698        -6.22526         5.76619
   C        6.93081       -10.83794         1.94533
   C        6.63891       -12.03321         2.58655
   C        7.42788       -13.08835         2.04479
   C        8.31166       -12.64209         1.04701
   S        8.18113       -10.94841         0.73915
   C        8.95876       -13.77254         0.53527
   C        8.44394       -14.85835         1.20518
   N        7.50478       -14.45890         2.11954
   C        6.58743       -15.34546         2.79656
   C        7.27322       -16.30958         3.76217
   C        8.91564       -16.20154         0.76875
   C       10.11149       -15.93966        -0.16017
   S       10.12823       -14.17113        -0.70018
   C        5.60979       -12.06901         3.60011
   C        5.68069       -12.65382         4.82005
   C        4.65623       -12.65795         5.81466
   C        4.99831       -13.27156         6.97130
   C        6.31744       -13.80200         6.98380
   S        7.12133       -13.45144         5.46223
   C        6.93920       -14.49952         7.98414
   C        6.41675       -14.83787         9.26551
   C        7.26333       -15.54410        10.04419
   C        8.53605       -15.82481         9.44097
   S        8.57305       -15.12435         7.81477
   C        9.56401       -16.49873         9.97143
   H       11.40516        -2.45116        -7.76202
   H       10.21611        -3.81005        -8.11036
   H       11.99001        -1.95114        -5.21494
   H       11.39767        -2.79853        -2.85837
   H       10.52747        -3.90492        -0.98252
   H        9.23313        -5.41888         0.64566
   H        7.50648        -7.24969         0.68793
   H        2.28204       -11.27851         0.30084
   H        3.67688       -10.58894         1.15953
   H        3.57024       -13.36151        -0.14682
   H        3.54692       -13.02983         1.58663
   H        4.99078       -12.66775         0.63322
   H        1.49207       -11.50610        -2.54855
   H        2.38203       -12.96837        -2.10379
   H        1.92233       -12.29393        -4.75432
   H        3.35607       -13.19992        -4.23319
   H        7.74053       -10.88626         4.55764
   H        7.59772       -10.26273         6.21468
   H        9.05126        -8.90082         3.88701
   H        9.82671        -9.73649         5.23614
   H        8.92828        -8.23996         5.52046
   H        7.01025        -7.50298         7.24719
   H        5.96195        -8.86926         7.65357
   H        5.18185        -6.20237         8.00710
   H        4.03592        -7.53225         7.75735
   H        6.03374       -15.91921         2.04209
   H        5.87173       -14.72341         3.33415
   H        7.78150       -17.10702         3.22874
   H        6.52793       -16.75855         4.41344
   H        7.99747       -15.78324         4.37737
   H        8.11762       -16.73053         0.23570
   H        9.23347       -16.82483         1.60618
   H       10.08595       -16.55139        -1.05900
   H       11.05563       -16.10929         0.35676
   H        4.72866       -11.47227         3.39853
   H        3.70144       -12.20099         5.62151
   H        4.34654       -13.36860         7.82123
   H        5.42540       -14.54144         9.56022
   H        7.04293       -15.88847        11.03910
   H        9.49839       -16.90641        10.96464
   H       10.47928       -16.65378         9.43030
*
