# ORCA input file
# SCF done       -133.430879390457          0.000277254279
! CAM-B3LYP def2-SVP def2/J RIJCOSX Grid4 TightSCF
%maxcore 5000
%tddft
    Mode sTDDFT
    Ethresh 5.0
    maxcore 5000
end

%pal
  nprocs 6
  end
* xyz 0 1
   C       -3.98761         8.11189        -7.87035
   S       -5.15063         6.97534        -7.26380
   C       -3.89360         5.91190        -6.81204
   C       -2.63880         6.42675        -7.11703
   C       -2.69975         7.69208        -7.72842
   C       -1.64193         5.46514        -6.65434
   O       -0.43009         5.54167        -6.73186
   C       -2.44800         4.34006        -6.03615
   C       -3.77853         4.64148        -6.16637
   C       -1.92858         3.26159        -5.28192
   C       -0.61285         3.06140        -4.98655
   C       -0.13947         2.20389        -3.96553
   O        1.18451         1.87169        -3.98472
   C        1.41970         1.04490        -2.96039
   C        0.29301         0.83084        -2.23290
   C       -0.73421         1.59863        -2.84956
   N       -2.02448         1.65687        -2.37806
   C       -2.89863         2.70768        -2.45303
   C       -2.54342         3.99018        -2.69626
   C       -3.49892         5.02265        -2.95811
   C       -3.19666         6.33804        -3.17004
   O       -4.18215         7.30610        -3.35491
   C       -5.44318         6.83171        -3.52539
   C       -5.75344         5.45299        -3.34612
   C       -7.05966         5.17329        -3.57648
   S       -7.93665         6.59505        -4.00847
   C       -6.52049         7.57172        -3.88493
   O       -4.80650         4.54642        -2.97974
   C       -1.90473         6.96612        -3.17926
   C       -0.73431         6.46707        -3.62925
   C        0.49941         7.17301        -3.56833
   O        0.63862         8.29732        -2.81594
   C        1.91871         8.68201        -2.90404
   C        2.63891         7.84933        -3.70312
   C        1.72452         6.85952        -4.15595
   N        1.91537         5.85529        -5.07355
   C        3.07262         5.20555        -5.36108
   C        4.20871         5.21236        -4.62715
   C        5.39483         4.52868        -5.00196
   S        5.52015         3.64375        -6.51412
   C        7.14175         3.21358        -6.15783
   C        7.55671         3.72569        -4.93657
   C        6.57854         4.46827        -4.28087
   C        8.96280         3.29727        -4.74244
   O        9.69760         3.52222        -3.81104
   C        9.29118         2.50161        -5.98101
   C        8.19111         2.47288        -6.78699
   C       10.59240         1.92534        -6.15750
   C       11.00039         1.22714        -7.21812
   H       -4.34327         9.02868        -8.29629
   H       -1.84450         8.26188        -8.04269
   H       -4.60297         4.04171        -5.82676
   H       -2.66864         2.58955        -4.87466
   H        0.15376         3.58644        -5.53620
   H        2.42116         0.68021        -2.84458
   H        0.19342         0.22023        -1.35870
   H       -2.30165         0.87302        -1.80384
   H       -3.93892         2.43496        -2.34398
   H       -1.50680         4.26792        -2.67371
   H       -7.55704         4.22872        -3.50728
   H       -6.56525         8.62276        -4.07746
   H       -1.93160         8.00191        -2.86629
   H       -0.67633         5.48874        -4.07819
   H        2.20310         9.56253        -2.36231
   H        3.67049         7.94844        -3.96776
   H        1.10241         5.62442        -5.63573
   H        3.02840         4.61130        -6.26460
   H        4.25122         5.74485        -3.68886
   H        6.70659         4.94858        -3.32779
   H        8.10287         1.98488        -7.74046
   H       11.26982         2.10404        -5.33156
   H       10.35402         1.03415        -8.05744
   H       11.99729         0.82719        -7.27844
*
