# ORCA input file
# SCF done       -180.705073070121          0.001399766986
! CAM-B3LYP def2-SVP def2/J RIJCOSX Grid4 TightSCF
%maxcore 5000
%tddft
    Mode sTDDFT
    Ethresh 5.0
    maxcore 5000
end

%pal
  nprocs 6
  end
* xyz 0 1
   C       -1.87656        -7.01542        -6.53105
   O       -0.66616        -7.29907        -6.05285
   C       -0.80897        -7.70609        -4.76487
   C       -2.14076        -7.67991        -4.41931
   C       -2.82922        -7.22982        -5.57139
   C       -4.29443        -7.02679        -5.70870
   F       -4.63048        -6.57535        -6.92924
   F       -4.99588        -8.15719        -5.51583
   F       -4.77798        -6.13356        -4.82777
   C        0.33168        -8.07094        -3.98238
   C        1.59951        -8.02108        -4.43289
   C        2.71218        -8.37785        -3.61141
   N        4.02228        -8.28877        -4.01856
   C        4.86575        -8.67135        -3.02119
   C        4.09331        -9.02073        -1.93277
   C        2.74303        -8.83421        -2.31156
   S        1.72238        -9.31614        -0.94053
   O        0.96938       -10.49997        -1.25849
   O        0.98038        -8.19720        -0.41881
   C        3.15981        -9.69420         0.10500
   C        4.29860        -9.48748        -0.58978
   C        2.88995       -10.10821         1.43330
   C        3.83856       -10.28370         2.38336
   C        3.67070       -10.62923         3.75340
   S        5.10764       -10.50375         4.73583
   C        4.24183       -10.92369         6.18297
   C        2.90194       -11.14781         5.89985
   C        2.58438       -11.00678         4.53412
   C        1.18965       -11.24853         4.00436
   O        1.15795       -12.01307         2.81118
   C        1.76684       -13.27946         2.85282
   C        0.27876       -11.84357         5.08708
   C        0.47058       -11.10887         6.40422
   C        1.86374       -11.41536         6.94445
   C        4.97562       -10.96241         7.40078
   C        4.59849       -11.53572         8.56648
   C        5.38983       -11.51321         9.74614
   S        6.89721       -10.65031         9.83631
   C        7.12110       -11.10033        11.50656
   C        6.08604       -11.91208        11.94229
   C        5.10704       -12.13015        10.95598
   C        3.84507       -12.92401        11.18806
   O        3.59592       -13.88309        10.16631
   C        4.58110       -14.87015         9.98470
   C        3.79452       -13.52371        12.60568
   C        5.17078       -13.84838        13.17571
   C        6.00638       -12.57572        13.28012
   C        8.28801       -10.60121        12.15464
   C        8.47074       -10.50982        13.49086
   C        9.63235       -10.05327        14.18399
   S        9.48210        -9.98152        15.92042
   C       11.13097        -9.47210        16.11299
   C       11.75762        -9.38424        14.88842
   C       10.91227        -9.68872        13.79602
   C       11.38843        -9.63139        12.36614
   O       10.59854        -8.78594        11.53353
   C       10.25563        -7.53067        12.06772
   C       12.87056        -9.23629        12.25222
   C       13.69379        -9.77736        13.41011
   C       13.21963        -9.12551        14.70562
   C       11.60750        -9.23532        17.45013
   C       12.65206        -8.49200        17.80886
   H       -1.95844        -6.67525        -7.54433
   H       -2.56682        -7.94369        -3.47438
   H        0.12857        -8.39252        -2.97155
   H        1.80769        -7.69506        -5.44307
   H        4.31046        -7.98153        -4.93399
   H        5.92906        -8.66644        -3.15292
   H        5.29016        -9.65194        -0.19946
   H        1.84585       -10.27157         1.64399
   H        4.86987       -10.09219         2.11028
   H        0.77118       -10.27930         3.69398
   H        1.81407       -13.61452         1.81834
   H        1.18098       -14.00108         3.43325
   H        2.78145       -13.22991         3.26236
   H        0.52297       -12.89763         5.23161
   H       -0.75377       -11.77954         4.74176
   H        0.36129       -10.03382         6.24589
   H       -0.28272       -11.42439         7.12768
   H        1.90899       -12.46567         7.25061
   H        2.07247       -10.80287         7.82485
   H        5.95502       -10.49979         7.35691
   H        3.67734       -12.08835         8.64689
   H        2.98747       -12.24510        11.07308
   H        5.57913       -14.42962         9.88737
   H        4.32565       -15.38156         9.05743
   H        4.58298       -15.59956        10.80211
   H        3.17113       -14.41895        12.56956
   H        3.30580       -12.80569        13.26754
   H        5.05784       -14.29633        14.16507
   H        5.69072       -14.56578        12.53944
   H        7.01088       -12.81632        13.63425
   H        5.54441       -11.89717        14.00485
   H        9.03906       -10.21298        11.48389
   H        7.66440       -10.79028        14.15347
   H       11.25235       -10.62935        11.92278
   H        9.51101        -7.62422        12.86750
   H        9.82461        -6.96500        11.24319
   H       11.12653        -6.99265        12.45674
   H       12.94677        -8.14634        12.24109
   H       13.25164        -9.60025        11.29682
   H       13.57262       -10.86107        13.47715
   H       14.75163        -9.56212        13.24870
   H       13.40965        -8.04812        14.66005
   H       13.76836        -9.52770        15.56004
   H       11.00627        -9.70195        18.22120
   H       13.25692        -7.95282        17.10324
   H       12.91772        -8.38332        18.84611
*
