# ORCA input file
# SCF done       -150.034035869937          0.000576122510
! CAM-B3LYP def2-SVP def2/J RIJCOSX Grid4 TightSCF
%maxcore 5000
%tddft
    Mode sTDDFT
    Ethresh 5.0
    maxcore 5000
end

%pal
  nprocs 6
  end
* xyz 0 1
   C        2.30255         1.55147        -5.95537
   S        2.45578         3.23315        -5.67475
   C        2.48811         2.97570        -3.95689
   C        2.37841         1.63501        -3.64614
   C        2.27332         0.82535        -4.80061
   C        2.12214        -0.65967        -4.72194
   C        2.59109        -1.18518        -3.36778
   F        2.21597        -2.50795        -3.26648
   C        1.95548        -0.38331        -2.22942
   F        2.34044        -0.92245        -1.02143
   C        2.40472         1.07596        -2.26553
   C        2.61505         4.06357        -3.04987
   S        2.72516         5.74035        -3.56250
   C        2.82603         6.11682        -1.84280
   N        2.77311         5.04971        -1.09754
   N        2.66050         3.92808        -1.75317
   C        2.95198         7.44905        -1.36565
   C        3.01107         7.72477        -0.03991
   C        3.13628         9.04278         0.46792
   N        3.20363         9.33779         1.81086
   C        3.22654         8.39127         2.89960
   C        4.59540         7.73211         3.05066
   C        3.31467        10.71866         2.04257
   O        3.38118        11.20980         3.15305
   C        3.30882        11.30452         0.72116
   C        3.19758        10.25031        -0.22226
   C        3.19500        10.83604        -1.54402
   O        3.12321        10.34450        -2.65393
   N        3.31427        12.21612        -1.31285
   C        3.29384        13.16234        -2.40186
   C        1.92937        13.83164        -2.54673
   C        3.37895        12.51174         0.03032
   C        3.51431        13.82827         0.53781
   C        3.54153        14.10498         1.86503
   C        3.68388        15.43239         2.34782
   S        3.69116        15.81134         4.06832
   C        3.89432        17.48361         3.56413
   N        3.93747        17.61231         2.26541
   N        3.82177        16.49711         1.60569
   C        3.99416        18.55361         4.49578
   C        4.18642        19.83138         4.10496
   C        4.28168        20.94343         4.98579
   S        4.10099        20.76721         6.71239
   C        4.34725        22.44429         6.94922
   C        4.55574        23.11594         5.78020
   C        4.51698        22.26384         4.65309
   C        4.76125        22.76062         3.26460
   C        4.68467        24.28421         3.17814
   F        5.25248        24.67198         1.98355
   C        5.43481        24.94304         4.33753
   F        5.40256        26.31256         4.18740
   C        4.77405        24.59036         5.66679
   H        2.24026         1.18684        -6.96145
   H        2.67911        -1.14961        -5.52230
   H        1.06823        -0.93129        -4.84212
   H        3.68379        -1.16806        -3.27275
   H        0.86366        -0.48272        -2.27289
   H        3.42512         1.13127        -1.87310
   H        1.79000         1.68272        -1.59863
   H        3.00041         8.23908        -2.10166
   H        2.95589         6.90179         0.65708
   H        2.44791         7.63873         2.74747
   H        2.99354         8.96480         3.80141
   H        4.86316         7.17889         2.15332
   H        4.58150         7.04625         3.89299
   H        5.35424         8.48978         3.23120
   H        3.51861        12.58668        -3.30427
   H        4.07866        13.90909        -2.25368
   H        1.16277        13.07888        -2.71474
   H        1.94158        14.51046        -3.39488
   H        1.67395        14.39415        -1.65164
   H        3.60323        14.64861        -0.15905
   H        3.45348        13.31613         2.59890
   H        3.91067        18.30086         5.54327
   H        4.27750        20.03335         3.04723
   H        4.32255        22.84780         7.94176
   H        4.04803        22.32392         2.56284
   H        5.76306        22.45883         2.93952
   H        3.64931        24.64681         3.15531
   H        6.49329        24.65574         4.31119
   H        3.81222        25.11175         5.71349
   H        5.38485        24.95726         6.49320
*
