# ORCA input file
# SCF done       -197.931559230484          0.000505878546
! CAM-B3LYP def2-SVP def2/J RIJCOSX Grid4 TightSCF
%maxcore 5000
%tddft
    Mode sTDDFT
    Ethresh 5.0
    maxcore 5000
end

%pal
  nprocs 6
  end
* xyz 0 1
   C        6.03687        -0.12587         2.81196
   C        5.23385         0.92250         2.38914
   F        5.27578         2.07907         3.05702
   C        4.38338         0.79925         1.28840
   F        3.62877         1.83823         0.91669
   C        4.31335        -0.38959         0.58125
   C        5.11087        -1.43450         1.00591
   C        5.97273        -1.31906         2.10800
   C        6.67695        -2.58681         2.28589
   C        7.70793        -2.79797         3.16065
   C        8.18887        -1.82275         4.06255
   N        8.62167        -1.07858         4.82054
   C        8.47102        -3.98184         3.26934
   N        9.15355        -4.89444         3.40698
   C        6.14374        -3.53022         1.31270
   C        5.20749        -2.79333         0.43036
   O        4.61080        -3.18717        -0.54700
   C        6.39642        -4.87403         1.34606
   C        6.01007        -5.91599         0.47558
   S        6.35935        -7.55367         0.99493
   C        5.71154        -8.22738        -0.45776
   C        5.25614        -7.20291        -1.30817
   C        5.42458        -5.92103        -0.77960
   C        4.66926        -7.40330        -2.57022
   N        4.18517        -7.53232        -3.60265
   C        5.69448        -9.63248        -0.61932
   C        5.28322       -10.28396        -1.74158
   C        5.25999       -11.69491        -1.83880
   N        4.85994       -12.36989        -2.96679
   C        4.37804       -11.78790        -4.19805
   C        2.92554       -11.33331        -4.08636
   C        4.91703       -13.76405        -2.79573
   O        4.60890       -14.56082        -3.65614
   C        5.40615       -13.93773        -1.44238
   C        5.60815       -12.65270        -0.88418
   C        6.10001       -12.82606         0.46488
   O        6.41516       -12.02788         1.32567
   N        6.16998       -14.21919         0.63277
   C        6.57798       -14.79917         1.88971
   C        5.38068       -15.25672         2.71917
   C        5.75399       -14.89480        -0.49131
   C        5.72202       -16.31003        -0.59363
   C        5.29591       -16.95962        -1.70358
   C        5.26401       -18.37960        -1.79289
   O        5.66921       -19.15446        -0.72841
   C        5.50933       -20.42464        -1.14678
   C        4.99942       -20.37477        -2.48320
   N        4.86842       -19.06106        -2.82406
   C        4.72362       -21.52071        -3.20877
   C        4.98083       -22.70485        -2.53474
   C        5.48646       -22.72886        -1.19874
   C        5.76856       -21.59425        -0.46182
   O        5.62002       -24.02028        -0.84104
   C        5.22426       -24.73153        -1.93662
   N        4.83941       -23.99764        -2.94036
   C        5.19613       -26.15324        -1.85219
   C        4.94064       -27.02214        -2.85622
   C        4.53933       -28.42701        -2.53790
   O        4.68746       -29.00344        -1.49006
   C        3.86918       -28.91076        -3.76360
   C        3.97908       -27.94254        -4.77982
   C        3.39091       -28.16321        -6.01567
   C        2.70878       -29.35496        -6.20768
   C        2.61584       -30.31759        -5.19894
   C        3.19734       -30.10289        -3.96039
   F        1.95409       -31.45505        -5.43202
   F        2.12473       -29.58529        -7.38594
   C        4.78505       -26.82633        -4.28888
   C        5.45212       -25.92232        -5.06104
   C        6.46865       -25.06717        -4.57602
   N        7.37908       -24.43584        -4.27901
   C        5.29678       -25.82395        -6.46142
   N        5.19113       -25.70136        -7.59666
   H        6.67294         0.02061         3.66924
   H        3.65785        -0.49156        -0.26894
   H        6.97619        -5.22745         2.19096
   H        5.12449        -5.02588        -1.29349
   H        6.04010       -10.21017         0.22906
   H        4.95880        -9.72121        -2.60279
   H        4.45837       -12.57497        -4.95290
   H        5.02282       -10.95370        -4.48634
   H        2.28978       -12.17666        -3.82783
   H        2.59801       -10.92852        -5.03932
   H        2.81197       -10.56271        -3.32741
   H        7.11471       -14.01122         2.42549
   H        7.26474       -15.62934         1.70408
   H        4.73040       -14.41123         2.92972
   H        5.72459       -15.67272         3.66198
   H        4.80456       -16.01326         2.19099
   H        6.05593       -16.88716         0.25736
   H        4.95556       -16.43083        -2.58281
   H        4.34789       -21.49309        -4.21561
   H        6.15398       -21.62290         0.54244
   H        5.30740       -26.56351        -0.85557
   H        3.43370       -27.44765        -6.82063
   H        3.12402       -30.84378        -3.18020
*
