# ORCA input file
# SCF done       -184.184508314535          0.000640109046
! CAM-B3LYP def2-SVP def2/J RIJCOSX Grid4 TightSCF
%maxcore 5000
%tddft
    Mode sTDDFT
    Ethresh 5.0
    maxcore 5000
end

%pal
  nprocs 6
  end
* xyz 0 1
   C        9.37562        -0.96868        -1.00327
   C       10.61001        -1.20153        -1.60400
   C       11.54031        -0.05398        -1.83163
   C       10.98210        -2.49852        -1.99281
   C       12.30780        -2.74430        -2.63754
   C       10.10921        -3.55861        -1.77240
   C        8.88924        -3.31915        -1.17283
   C        8.50637        -2.02393        -0.78338
   C        7.17763        -2.08123        -0.18288
   C        6.46399        -1.00214         0.26709
   C        6.93295         0.32852         0.22039
   N        7.25165         1.43129         0.21281
   C        5.16925        -1.03995         0.82659
   N        4.11836        -0.98241         1.28661
   C        6.76676        -3.47688        -0.17568
   C        7.82442        -4.26918        -0.82991
   O        7.82178        -5.46877        -1.04400
   C        5.62108        -3.97199         0.38022
   C        5.15206        -5.29844         0.46932
   S        5.90979        -6.73041        -0.17309
   C        4.64952        -7.74181         0.46132
   C        3.68319        -6.98152         1.13896
   C        3.97068        -5.61934         1.13177
   C        2.53585        -7.52537         1.74722
   N        1.58738        -7.93419         2.24387
   C        4.65018        -9.14649         0.31313
   C        5.58446        -9.80810        -0.42504
   C        5.62201       -11.21408        -0.54740
   N        6.52424       -11.89105        -1.33745
   C        7.48598       -11.30502        -2.23906
   C        6.82537       -10.78747        -3.51453
   C        6.36349       -13.28713        -1.24801
   O        7.04747       -14.08731        -1.85086
   C        5.27345       -13.45278        -0.31213
   C        4.83651       -12.17401         0.09431
   C        3.76737       -12.36404         1.04787
   O        3.09373       -11.57764         1.68074
   N        3.62429       -13.76468         1.15054
   C        2.61039       -14.30796         2.02191
   C        1.33620       -14.66712         1.26050
   C        4.51604       -14.42774         0.33854
   C        4.73290       -15.81263         0.13578
   C        4.03872       -16.88131         0.60490
   C        4.37274       -18.22887         0.30766
   S        3.32181       -19.50236         0.86963
   C        4.31718       -20.72555         0.15193
   C        5.41950       -20.14142        -0.48406
   C        5.44494       -18.74513        -0.39644
   C        6.40052       -20.90418        -1.14295
   N        7.20271       -21.52951        -1.67230
   C        3.99725       -22.10056         0.18712
   C        2.87137       -22.60005         0.76052
   C        2.52779       -23.96983         0.72010
   C        1.33094       -24.52335         1.05813
   C        1.23172       -25.99041         1.31091
   O        2.05476       -26.82789         1.02068
   C       -0.04290       -26.16815         2.02719
   C       -0.71982       -24.93684         2.09984
   C       -1.93391       -24.86561         2.76059
   C       -2.47761       -26.01232         3.33245
   C       -1.80488       -27.24162         3.24183
   C       -0.57902       -27.30975         2.58763
   C       -2.39819       -28.47398         3.84477
   C       -3.79008       -25.92459         4.04282
   C        0.04865       -23.92933         1.37471
   C       -0.44996       -22.74246         0.90368
   C        0.19533       -21.90924        -0.03432
   N        0.63809       -21.20889        -0.82912
   C       -1.73377       -22.25198         1.22259
   N       -2.75624       -21.79052         1.46638
   H        9.11623         0.03670        -0.71363
   H       11.10450         0.87390        -1.47215
   H       11.76210         0.05359        -2.89285
   H       12.48474        -0.21906        -1.31419
   H       13.11762        -2.43616        -1.97700
   H       12.39869        -2.16856        -3.55798
   H       12.43289        -3.79764        -2.87252
   H       10.37459        -4.56465        -2.06125
   H        4.95480        -3.26047         0.85306
   H        3.34627        -4.87610         1.59701
   H        3.86769        -9.69748         0.82113
   H        6.34364        -9.23405        -0.93943
   H        8.18991       -12.10428        -2.48758
   H        8.02767       -10.50306        -1.72976
   H        6.32421       -11.60288        -4.03039
   H        7.57917       -10.36916        -4.17551
   H        6.09167       -10.01693        -3.28843
   H        2.38294       -13.51706         2.74352
   H        3.01613       -15.16616         2.56286
   H        0.90142       -13.76761         0.83235
   H        0.61347       -15.11121         1.93944
   H        1.53912       -15.36768         0.45340
   H        5.57800       -15.99424        -0.51560
   H        3.16196       -16.75739         1.22043
   H        6.22075       -18.14354        -0.83429
   H        4.68070       -22.76336        -0.32926
   H        2.20518       -21.91693         1.27056
   H        3.30607       -24.67194         0.43991
   H       -2.46458       -23.93069         2.84806
   H       -0.04419       -28.24450         2.50988
   H       -3.37227       -28.68460         3.40448
   H       -2.54379       -28.34416         4.91674
   H       -1.75120       -29.33168         3.68324
   H       -4.17573       -24.90926         4.01730
   H       -3.68418       -26.23226         5.08266
   H       -4.52066       -26.58538         3.57766
*
