# ORCA input file
# SCF done       -138.983412041394          0.000786143412
! CAM-B3LYP def2-SVP def2/J RIJCOSX Grid4 TightSCF
%maxcore 5000
%tddft
    Mode sTDDFT
    Ethresh 5.0
    maxcore 5000
end

%pal
  nprocs 6
  end
* xyz 0 1
   C        0.98106        -2.29908        -1.03849
   N        0.25950        -1.84383        -2.02054
   C       -1.02867        -1.73272        -1.69809
   C       -1.35556        -2.11113        -0.41270
   S        0.06740        -2.63926         0.42835
   C       -2.61515        -2.09577         0.18599
   N       -3.65508        -2.08309         0.67138
   C        2.38321        -2.50780        -1.11904
   S        3.30290        -3.11700         0.22379
   C        4.78301        -3.04728        -0.69160
   C        4.53235        -2.56797        -1.98021
   C        3.18171        -2.26765        -2.21441
   C        5.53040        -2.40207        -2.95864
   N        6.31109        -2.25946        -3.78538
   C        6.03272        -3.42523        -0.15263
   C        6.18512        -3.90103         1.11261
   C        7.43582        -4.26353         1.66185
   N        7.59895        -4.75142         2.94430
   C        6.56608        -4.92427         3.93658
   C        6.18613        -3.60168         4.59840
   C        8.93962        -5.01926         3.23629
   O        9.32516        -5.45787         4.31011
   C        9.64980        -4.67470         2.03045
   C        8.69947        -4.21684         1.08186
   C        9.41266        -3.86298        -0.12534
   O        9.03650        -3.43618        -1.19707
   N       10.76230        -4.13189         0.17680
   C       11.81107        -3.85563        -0.77601
   C       12.52318        -2.53980        -0.47321
   C       10.91814        -4.60605         1.45341
   C       12.17738        -4.93302         2.02648
   C       12.24214        -5.39977         3.29263
   N       13.38656        -5.69753         3.98646
   C       13.37298        -6.20432         5.27562
   C       12.13584        -6.55246         5.99846
   C       14.66859        -6.31781         5.69814
   C       15.54810        -5.86884         4.64587
   C       14.73185        -5.46883         3.52724
   O       15.01476        -5.03148         2.43861
   C       16.84406        -5.96052         5.06620
   C       18.09073        -5.62261         4.36146
   N       16.81646        -6.45786         6.36221
   C       15.48478        -6.70436         6.81163
   O       15.25117        -7.14095         7.91842
   C       17.87476        -6.69494         7.19283
   N       19.11740        -6.48425         6.88755
   C       19.93178        -6.80232         7.90684
   C       19.30734        -7.27337         9.03409
   S       17.57789        -7.31997         8.79908
   C       19.91264        -7.66976        10.22662
   N       20.41807        -7.99328        11.20487
   H       -1.73106        -1.36685        -2.42514
   H        2.79409        -1.88834        -3.14212
   H        6.89267        -3.31460        -0.80203
   H        5.30808        -4.00920         1.73769
   H        6.97861        -5.60397         4.68758
   H        5.69254        -5.39576         3.47788
   H        7.05544        -3.16955         5.08801
   H        5.41513        -3.77118         5.34478
   H        5.81371        -2.89026         3.86464
   H       11.32164        -3.79136        -1.75188
   H       12.52111        -4.68665        -0.78791
   H       11.80827        -1.72052        -0.47837
   H       13.27529        -2.34888        -1.23330
   H       13.01064        -2.57249         0.49837
   H       13.06971        -4.78705         1.44120
   H       11.32881        -5.55073         3.85314
   H       11.58893        -7.33453         5.47084
   H       11.46531        -5.69641         6.07620
   H       12.39185        -6.90350         6.99431
   H       17.85457        -5.25776         3.36586
   H       18.73710        -6.49699         4.29743
   H       18.64476        -4.86687         4.91685
   H       20.99204        -6.67348         7.78672
*
