# ORCA input file
# SCF done       -206.802961377165          0.000811978108
! CAM-B3LYP def2-SVP def2/J RIJCOSX Grid4 TightSCF
%maxcore 5000
%tddft
    Mode sTDDFT
    Ethresh 5.0
    maxcore 5000
end

%pal
  nprocs 6
  end
* xyz 0 1
   C        2.36351         1.61012         0.94037
   C        2.67818         0.60988         0.05781
   C        3.59346        -0.42820         0.33565
   N        4.32439        -1.29888         0.49440
   C        2.16110         0.46287        -1.24645
   N        1.79131         0.27329        -2.31733
   C        2.92643         1.75928         2.27854
   C        2.39464         2.94289         2.86650
   C        2.74050         3.34754         4.12381
   C        3.65110         2.56774         4.87050
   C        4.18545         1.37956         4.29324
   C        3.81021         0.98877         2.98683
   C        5.09003         0.60619         5.04844
   C        5.45079         0.98681         6.31268
   C        4.92466         2.15717         6.87938
   C        4.04382         2.93125         6.17346
   C        1.46889         3.57697         1.92109
   O        0.84975         4.61244         2.09732
   C        1.43947         2.71309         0.72859
   C        0.65047         2.89868        -0.37352
   C       -0.28876         3.90927        -0.65837
   S       -0.69664         5.27885         0.33764
   C       -1.87558         5.82836        -0.81359
   C       -1.93336         4.97240        -1.92644
   C       -1.04165         3.90890        -1.83101
   C       -2.79071         5.16707        -3.02645
   N       -3.47214         5.30042        -3.93801
   C       -2.66500         6.97770        -0.59818
   C       -2.50920         7.76939         0.50202
   C       -3.30857         8.89556         0.77847
   N       -3.12888         9.70702         1.87501
   C       -2.06492         9.61871         2.84618
   C       -0.74624        10.15459         2.29484
   C       -4.09238        10.72514         1.94099
   O       -4.12788        11.55776         2.82571
   C       -4.93280        10.50028         0.78268
   C       -4.42314         9.38559         0.08796
   C       -5.26879         9.14822        -1.06579
   O       -5.21829         8.31805        -1.94810
   N       -6.24852        10.15093        -0.98744
   C       -7.31815        10.22561        -1.95536
   C       -8.60202         9.58450        -1.43547
   C       -6.07736        10.96015         0.11090
   C       -6.93928        12.01803         0.45357
   C       -6.73962        12.79854         1.55915
   C       -7.60663        13.82900         1.97618
   C       -8.81696        14.23606         1.43812
   C       -9.35895        15.27451         2.23522
   C       -8.38081        15.51875         3.31488
   C       -7.34895        14.65322         3.15005
   C       -8.46268        16.48222         4.32726
   N       -8.48348        17.26428         5.16796
   C      -10.57508        15.90936         2.07152
   C      -11.16755        16.88197         2.91785
   C      -12.40824        17.23138         2.41211
   C      -12.61636        16.47002         1.18949
   C      -11.53656        15.67300         0.97724
   C      -11.38220        14.79433        -0.09931
   N      -11.28135        14.07526        -0.99044
   C      -13.36248        18.13384         2.93754
   C      -13.22829        18.80956         4.11518
   C      -14.23420        19.67895         4.58636
   C      -14.18490        20.35792         5.77351
   C      -15.18554        21.26428         6.30259
   C      -16.39422        21.58214         5.73500
   C      -17.32783        22.47142         6.30736
   N      -18.13392        23.18019         6.71517
   C      -16.89242        21.07670         4.51669
   N      -17.37433        20.71159         3.54001
   C      -14.68949        21.78459         7.57283
   C      -13.41917        21.19971         7.84029
   C      -13.05883        20.28375         6.74519
   O      -12.05404        19.61066         6.66664
   C      -12.70739        21.49659         8.96630
   C      -13.24369        22.41349         9.89755
   C      -14.51362        23.00529         9.63833
   C      -15.22741        22.67688         8.46278
   C      -15.03957        23.91952        10.57385
   C      -14.34617        24.23482        11.71058
   C      -13.09587        23.65132        11.96451
   C      -12.55632        22.75992        11.07722
   H        2.32240         4.25019         4.54416
   H        4.23297         0.08334         2.58205
   H        5.49295        -0.29401         4.60824
   H        6.14406         0.38729         6.88315
   H        5.22026         2.44240         7.87784
   H        3.63498         3.83338         6.60458
   H        0.72398         2.16037        -1.16284
   H       -0.93838         3.14804        -2.58546
   H       -3.41730         7.21497        -1.34106
   H       -1.73695         7.51436         1.21558
   H       -1.95481         8.58223         3.17698
   H       -2.38308        10.22830         3.69654
   H       -0.42555         9.58491         1.42561
   H        0.02361        10.08900         3.05839
   H       -0.86001        11.19616         2.00433
   H       -6.96779         9.67984        -2.83577
   H       -7.48759        11.26967        -2.23093
   H       -8.42952         8.53412        -1.21387
   H       -9.37842         9.65749        -2.19143
   H       -8.94941        10.07829        -0.53066
   H       -7.79195        12.20432        -0.18261
   H       -5.87090        12.61707         2.17860
   H       -9.29772        13.82602         0.57280
   H       -6.47279        14.56944         3.76599
   H      -10.71513        17.26713         3.81012
   H      -13.49244        16.53687         0.57057
   H      -14.26757        18.27306         2.35665
   H      -12.34345        18.67992         4.71968
   H      -15.10074        19.80461         3.94908
   H      -11.74623        21.03687         9.14240
   H      -16.18514        23.14406         8.29783
   H      -16.00263        24.36620        10.37435
   H      -14.75761        24.93621        12.42093
   H      -12.56249        23.91175        12.86652
   H      -11.59407        22.30718        11.26669
*
