# ORCA input file
# SCF done       -212.593421673351          0.000649727684
! CAM-B3LYP def2-SVP def2/J RIJCOSX Grid4 TightSCF
%maxcore 5000
%tddft
    Mode sTDDFT
    Ethresh 5.0
    maxcore 5000
end

%pal
  nprocs 6
  end
* xyz 0 1
   C      -15.76424         4.08241         5.34440
   C      -16.03766         5.41204         5.15139
   C      -17.12595         6.08232         5.74584
   N      -17.99007         6.67322         6.21665
   C      -15.30496         6.23170         4.27097
   N      -14.74090         6.91508         3.54114
   C      -16.62549         3.13834         6.04897
   C      -16.29115         1.81827         5.62670
   C      -16.95479         0.72417         6.10177
   C      -17.99050         0.90304         7.04664
   C      -18.31849         2.21896         7.48425
   C      -17.62077         3.33511         6.96747
   C      -19.34657         2.38207         8.43465
   C      -20.02110         1.29904         8.92913
   C      -19.69835         0.00402         8.49712
   C      -18.70545        -0.18963         7.57537
   C      -15.16389         1.88123         4.68027
   O      -14.64532         0.97510         4.06988
   C      -14.73633         3.31179         4.67814
   C      -13.50488         3.62231         4.19128
   C      -12.70517         4.76415         4.43617
   S      -11.31453         5.08067         3.42932
   C      -10.84530         6.44917         4.37518
   C      -11.73648         6.62933         5.43912
   C      -12.77311         5.68473         5.46070
   C      -11.64959         7.62224         6.42751
   N      -11.61613         8.40004         7.27206
   C       -9.66567         7.16581         4.02690
   C       -9.18096         8.21893         4.71827
   C       -7.96422         8.93076         4.40321
   C       -7.50945         9.01948         3.07695
   C       -6.37070         9.71072         2.72996
   C       -5.60193        10.33624         3.70636
   C       -6.01620        10.25744         5.01419
   C       -7.18760         9.57476         5.37506
   N       -7.34153         9.63516         6.75415
   C       -8.31920         8.97589         7.58084
   C       -6.32480        10.33997         7.34173
   O       -6.22067        10.53155         8.53195
   C       -5.34667        10.75976         6.25223
   C       -4.00577        10.03113         6.52905
   C       -4.32560         8.54412         6.71133
   O       -4.78024         7.78541         5.88510
   N       -4.05567         8.21794         8.00768
   C       -4.32556         6.92386         8.57176
   C       -3.54770         9.30001         8.71021
   C       -3.19941         9.36915        10.04056
   C       -2.72862        10.58780        10.53735
   C       -2.59268        11.68106         9.68400
   C       -2.95074        11.59950         8.34543
   C       -3.43989        10.40748         7.86128
   C       -2.43301        10.70428        11.96994
   C       -2.74359        11.86475        12.66939
   C       -2.55395        11.94124        14.04102
   N       -2.97473        13.15437        14.69226
   O       -3.03104        14.15733        14.01309
   O       -3.25815        13.10444        15.87146
   C       -2.04192        10.85993        14.77779
   C       -1.69915         9.71348        14.05155
   C       -1.88820         9.63631        12.68970
   C       -1.84794        10.89447        16.21243
   C       -2.06812         9.81559        16.99338
   C       -1.90476         9.85175        18.40472
   C       -2.18035         8.80661        19.23273
   C       -2.08563         8.79670        20.68458
   C       -1.45996         9.72772        21.46949
   C       -1.39149         9.65485        22.87717
   N       -1.30271         9.65277        24.02155
   C       -0.75909        10.85670        20.99383
   N       -0.14980        11.77928        20.68465
   C       -2.72574         7.57661        21.16196
   C       -3.10628         6.79167        20.03620
   C       -2.74146         7.49755        18.79715
   O       -2.87628         7.08453        17.66403
   C       -3.72199         5.58093        20.17452
   C       -3.99858         5.09273        21.47058
   C       -3.62958         5.87568        22.60259
   C       -2.98849         7.12341        22.42818
   C       -3.91572         5.38127        23.89165
   C       -4.53503         4.17239        24.05632
   C       -4.89708         3.40213        22.94089
   C       -4.63438         3.85238        21.67567
   H      -16.69145        -0.26708         5.76388
   H      -17.88209         4.31993         7.32257
   H      -19.59354         3.38135         8.76190
   H      -20.80777         1.43458         9.65609
   H      -20.23991        -0.83940         8.89856
   H      -18.45241        -1.18451         7.23917
   H      -13.03896         2.83816         3.60169
   H      -13.51466         5.65824         6.23999
   H       -9.12724         6.77796         3.17316
   H       -9.73506         8.56453         5.57391
   H       -8.09884         8.55373         2.30263
   H       -6.06906         9.76246         1.69534
   H       -4.69901        10.86557         3.44289
   H       -9.30605         9.43397         7.49786
   H       -7.97885         9.08467         8.61187
   H       -8.38037         7.91693         7.32666
   H       -5.17797        11.83866         6.25846
   H       -3.32683        10.19290         5.68942
   H       -4.72559         6.29742         7.77514
   H       -5.05888         7.00526         9.37664
   H       -3.40896         6.47605         8.96056
   H       -3.33764         8.52463        10.69631
   H       -2.20061        12.60932        10.06966
   H       -2.85746        12.46310         7.70453
   H       -3.18508        12.71111        12.16530
   H       -1.26162         8.87994        14.57851
   H       -1.59946         8.73663        12.16797
   H       -1.54434        11.82791        16.66746
   H       -2.42722         8.89343        16.56044
   H       -1.57338        10.79140        18.82806
   H       -3.99789         5.00439        19.30394
   H       -2.72652         7.69363        23.30519
   H       -3.63437         5.97726        24.74737
   H       -4.74983         3.80250        25.04765
   H       -5.38541         2.45062        23.08941
   H       -4.91104         3.26413        20.81288
*
