# ORCA input file
# SCF done       -176.854843474650          0.000561174002
! CAM-B3LYP def2-SVP def2/J RIJCOSX Grid4 TightSCF
%maxcore 5000
%tddft
    Mode sTDDFT
    Ethresh 5.0
    maxcore 5000
end

%pal
  nprocs 6
  end
* xyz 0 1
   C        1.80408        -0.13324         2.07302
   N        1.53407         0.66952         1.00987
   C        1.79870         0.35908        -0.37210
   C        3.27945         0.51685        -0.70879
   C        1.01757         1.92286         1.42462
   O        0.70263         2.80544         0.65200
   C        0.98152         1.81633         2.86087
   C        1.47582         0.52557         3.22531
   C        1.44393         0.44182         4.66905
   O        1.75334        -0.43561         5.44403
   N        0.94479         1.69911         5.08470
   C        0.71542         1.93711         6.48827
   C       -0.76766         1.87357         6.84570
   C        0.66484         2.52107         4.01237
   C        0.18893         3.85971         3.97750
   C       -0.04541         4.73849         4.98056
   C       -0.45469         6.08087         4.75708
   S       -0.78425         6.71339         3.16400
   C       -1.09250         8.30237         3.78977
   C       -0.96388         8.31434         5.18046
   C       -0.61112         7.06137         5.71179
   C       -1.18984         9.42775         6.00535
   N       -1.37316        10.30289         6.72568
   C       -1.38475         9.35260         2.88110
   C       -1.32980        10.67295         3.18043
   C       -1.55842        11.71466         2.23905
   S       -0.91165        13.28981         2.55879
   C       -1.42504        13.91526         1.00326
   C       -2.10868        12.92803         0.29735
   C       -2.17507        11.69059         0.99967
   O       -2.77961        10.59667         0.45085
   C       -4.04772        10.25393         1.00039
   C       -5.10624        11.31709         0.73868
   O       -2.75202        12.95463        -0.89035
   C       -2.44726        13.88255        -1.91195
   C       -1.01402        13.76516        -2.41691
   C       -1.06973        15.24944         0.66715
   C       -0.35052        16.05748         1.48375
   C        0.09794        17.36205         1.15044
   S        1.10923        18.21970         2.28266
   C        1.29627        19.57118         1.19912
   C        0.57380        19.34198         0.02581
   C       -0.09222        18.10670         0.00511
   C        0.50289        20.25113        -1.04476
   N        0.40268        20.95338        -1.94582
   C        2.10275        20.68854         1.50397
   C        2.75942        20.82885         2.68715
   C        3.61498        21.91498         2.98198
   N        4.25064        22.07794         4.19538
   C        4.08463        21.25766         5.36954
   C        2.76119        21.53603         6.07844
   C        5.07583        23.21462         4.21226
   O        5.72844        23.55074         5.18163
   C        4.93309        23.77993         2.88972
   C        4.02212        22.96278         2.16368
   C        3.89587        23.50932         0.83599
   O        3.24615        23.16674        -0.13318
   N        4.75238        24.62799         0.83941
   C        4.86187        25.47860        -0.32000
   C        4.03234        26.75206        -0.17207
   C        5.37121        24.79787         2.05468
   C        6.31155        25.84784         2.32273
   C        6.89344        26.01428         3.51242
   H        2.20590        -1.11985         1.93278
   H        1.20579         1.06014        -0.96582
   H        1.46620        -0.66192        -0.58149
   H        3.59664         1.53997        -0.52272
   H        3.44747         0.28494        -1.75669
   H        3.88508        -0.15160        -0.10062
   H        1.15887         2.89237         6.78188
   H        1.24847         1.13614         7.01047
   H       -1.34143         2.60340         6.27888
   H       -0.90050         2.06790         7.90660
   H       -1.15634         0.88285         6.62353
   H        0.03754         4.20620         2.96084
   H        0.09706         4.48005         6.01857
   H       -0.46822         6.89109         6.76472
   H       -1.59504         9.04966         1.86461
   H       -1.02531        10.99203         4.16769
   H       -3.95477        10.07009         2.07968
   H       -4.31101         9.31908         0.50061
   H       -4.87173        12.23089         1.28095
   H       -6.07684        10.95530         1.06630
   H       -5.14663        11.54555        -0.32296
   H       -2.68084        14.90513        -1.59079
   H       -3.14454        13.61598        -2.71152
   H       -0.29823        13.99663        -1.63114
   H       -0.86187        14.45191        -3.24511
   H       -0.83014        12.75031        -2.76106
   H       -1.37108        15.62787        -0.29556
   H       -0.05506        15.68864         2.45706
   H       -0.68602        17.78175        -0.83038
   H        2.19668        21.44525         0.73461
   H        2.63758        20.06359         3.44284
   H        4.91670        21.51198         6.03238
   H        4.16349        20.20136         5.09535
   H        2.71653        22.57880         6.38292
   H        2.67874        20.91107         6.96343
   H        1.91704        21.33030         5.42390
   H        4.48132        24.89020        -1.16001
   H        5.91336        25.71713        -0.50452
   H        2.98457        26.49612        -0.03518
   H        4.12746        27.35976        -1.06781
   H        4.36138        27.33528         0.68541
   H        6.54374        26.51532         1.50425
   H        6.67750        25.36179         4.34176
   H        7.59987        26.80883         3.68062
*
