# ORCA input file
# SCF done       -221.290729440181          0.000839844816
! CAM-B3LYP def2-SVP def2/J RIJCOSX Grid4 TightSCF
%maxcore 5000
%tddft
    Mode sTDDFT
    Ethresh 5.0
    maxcore 5000
end

%pal
  nprocs 6
  end
* xyz 0 1
   C       -3.62000         1.44521         6.77888
   N       -2.88067         2.56008         7.00790
   C       -1.94151         2.74604         8.08600
   C       -2.65387         3.01440         9.40897
   C       -3.19054         3.58617         6.07951
   O       -2.64954         4.67055         6.07205
   C       -4.20773         2.99109         5.24300
   C       -4.43992         1.66029         5.70414
   C       -5.45066         1.07481         4.84667
   O       -5.98167        -0.01115         4.83716
   N       -5.74785         2.09379         3.90755
   C       -6.81028         1.88985         2.95147
   C       -8.04848         2.71483         3.29262
   C       -5.02021         3.23507         4.14794
   C       -5.02332         4.48640         3.46184
   C       -5.55210         4.79564         2.26096
   C       -5.44476         6.11226         1.68594
   C       -5.17832         6.32533         0.31951
   C       -5.06560         5.22528        -0.65615
   O       -5.16632         4.04985        -0.46193
   S       -4.75111         5.91331        -2.28163
   C       -4.76207         7.59300        -1.67616
   O       -4.63086         8.53374        -2.41141
   C       -4.97992         7.59652        -0.21568
   C       -5.04575         8.78462         0.55642
   C       -5.42969         8.57090         1.89739
   C       -5.60948         7.29481         2.42515
   C       -6.10710         7.45101         3.81599
   O       -6.51517         6.64135         4.58824
   O       -6.10071         8.79287         4.09184
   C       -5.70454         9.52751         3.00301
   O       -5.63938        10.71614         3.04612
   C       -4.72144        10.03089        -0.07448
   C       -5.19490        11.26433         0.20742
   C       -4.91515        12.40367        -0.59630
   O       -5.18001        13.62572        -0.06974
   C       -4.89259        14.55501        -0.98410
   C       -4.44645        13.96284        -2.15585
   C       -4.47182        12.56084        -1.91644
   O       -4.11862        11.66417        -2.82646
   C       -4.05655        14.63092        -3.42226
   O       -4.25129        14.18977        -4.51034
   O       -3.45261        15.83652        -3.25338
   C       -5.05502        15.94906        -0.60239
   C       -5.74499        16.91046        -1.35709
   C       -6.47568        16.59166        -2.60733
   O       -6.65956        15.51617        -3.08861
   S       -7.15906        18.09972        -3.28132
   C       -6.63129        19.08301        -1.87808
   O       -6.88818        20.24715        -1.77727
   C       -5.87863        18.23127        -0.93428
   C       -5.38983        18.69566         0.31123
   C       -4.66601        17.73016         1.04115
   C       -4.50357        16.42622         0.59204
   C       -3.55779        15.74259         1.51289
   O       -3.08323        14.65317         1.44619
   O       -3.21925        16.65283         2.47687
   C       -3.81342        17.87519         2.25106
   O       -3.56961        18.82718         2.92242
   C       -5.61176        20.03613         0.76909
   C       -5.84036        20.33287         2.06989
   C       -6.08083        21.59477         2.67526
   N       -5.89557        22.86599         2.18732
   C       -5.40544        23.27447         0.89213
   C       -6.53133        23.40715        -0.13098
   C       -6.21640        23.84616         3.14982
   O       -6.10845        25.03781         2.94669
   C       -6.63897        23.09391         4.31135
   C       -6.53839        21.72082         3.98273
   C       -6.95398        20.94666         5.13183
   O       -7.05938        19.75560         5.32056
   N       -7.27347        21.92615         6.10127
   C       -7.67212        21.54410         7.43458
   C       -6.51216        21.64649         8.42202
   C       -7.08676        23.19742         5.62536
   C       -7.34433        24.37895         6.39654
   C       -7.13273        25.60922         5.92196
   H       -3.50524         0.57064         7.39283
   H       -1.32387         3.60608         7.81392
   H       -1.30731         1.85842         8.16626
   H       -3.26437         3.91040         9.32933
   H       -1.92234         3.16049        10.19855
   H       -3.29566         2.17804         9.67695
   H       -7.05231         0.82400         3.01055
   H       -6.45152         2.10126         1.94093
   H       -8.44336         2.40697         4.25766
   H       -8.81420         2.55564         2.53842
   H       -7.81554         3.77589         3.34119
   H       -4.45913         5.23936         3.99757
   H       -5.99943         4.04502         1.62979
   H       -4.04277         9.92666        -0.90647
   H       -5.81891        11.45598         1.06648
   H       -4.38174        10.75573        -2.61101
   H       -3.18992        15.99740        -2.33906
   H       -5.68807        20.78771         0.00088
   H       -5.91846        19.52426         2.78497
   H       -4.63688        22.57325         0.56061
   H       -4.94554        24.25665         1.04061
   H       -7.06155        22.46902        -0.27408
   H       -6.12122        23.72107        -1.08667
   H       -7.24190        24.15843         0.20453
   H       -8.00142        20.50360         7.36361
   H       -8.51669        22.15891         7.75750
   H       -5.69864        20.99825         8.10599
   H       -6.84112        21.33461         9.40934
   H       -6.13841        22.66632         8.48208
   H       -7.72691        24.23726         7.39772
   H       -6.74992        25.77323         4.92811
   H       -7.33689        26.47940         6.52164
*
