# ORCA input file
# SCF done       -118.977459321276          0.000815963582
! CAM-B3LYP def2-SVP def2/J RIJCOSX Grid4 TightSCF
%maxcore 5000
%tddft
    Mode sTDDFT
    Ethresh 5.0
    maxcore 5000
end

%pal
  nprocs 6
  end
* xyz 0 1
   C        0.39740         2.14190         0.14100
   S        0.14009         2.88612         1.66043
   C        1.50695         2.06035         2.33759
   C        1.83069         2.33920         3.71597
   O        1.19587         3.08357         4.42391
   C        2.12119         1.24254         1.39434
   C        1.46765         1.30652         0.13634
   C        3.26908         0.39868         1.55929
   S        4.10206         0.05125         3.06607
   C        5.16188        -0.96815         2.09679
   N        4.83258        -0.96419         0.83514
   N        3.80215        -0.22493         0.54541
   C        6.24237        -1.69055         2.66930
   C        7.07563        -2.44569         1.91263
   C        8.15678        -3.18057         2.46310
   N        9.03368        -3.92792         1.70999
   C        9.05696        -4.03481         0.27121
   C        9.66265        -2.79427        -0.38054
   C        9.99923        -4.56635         2.50434
   O       10.87294        -5.28265         2.05360
   C        9.66876        -4.17378         3.85601
   C        8.53493        -3.32134         3.79510
   C        8.19992        -2.93061         5.14526
   O        7.32747        -2.21439         5.59623
   N        9.16278        -3.57374         5.94204
   C        9.12468        -3.47221         7.38063
   C        8.49642        -4.70821         8.02051
   C       10.04054        -4.32055         5.18938
   C       11.11536        -5.06485         5.74718
   C       11.95145        -5.80872         4.98687
   C       13.05617        -6.58477         5.47425
   C       13.46865        -6.66906         6.81488
   N       14.48902        -7.39691         7.20494
   C       15.15136        -8.07973         6.26621
   N       14.85217        -8.07533         4.96403
   C       13.83226        -7.34669         4.58064
   C       16.27087        -8.87902         6.68335
   S       17.16021        -9.79301         5.52497
   C       18.21392       -10.38321         6.76724
   C       19.29993       -11.29072         6.46040
   O       20.07093       -11.74049         7.27255
   C       17.87046        -9.88061         8.00846
   C       16.77036        -9.02888         7.96163
   H       -0.26204         2.36329        -0.67498
   H        2.72842         1.81609         4.09429
   H        1.80538         0.74091        -0.71198
   H        6.37776        -1.61404         3.73906
   H        6.90442        -2.49026         0.84713
   H        8.04370        -4.21240        -0.09910
   H        9.67485        -4.90822         0.04425
   H        9.08400        -1.90540        -0.13969
   H        9.68001        -2.91820        -1.45966
   H       10.68206        -2.65059        -0.03061
   H        8.51276        -2.59373         7.60430
   H       10.13460        -3.30268         7.76479
   H        7.47686        -4.83154         7.66372
   H        8.47456        -4.59317         9.10069
   H        9.05888        -5.60635         7.77395
   H       11.24558        -5.01465         6.81822
   H       11.79467        -5.84312         3.91625
   H       12.96183        -6.12972         7.60497
   H       13.60521        -7.35590         3.52177
   H       19.36802       -11.55380         5.38745
   H       18.41503       -10.13832         8.89902
   H       16.33451        -8.52795         8.80638
*
