# ORCA input file
# SCF done       -171.350927986958          0.000804672678
! CAM-B3LYP def2-SVP def2/J RIJCOSX Grid4 TightSCF
%maxcore 5000
%tddft
    Mode sTDDFT
    Ethresh 5.0
    maxcore 5000
end

%pal
  nprocs 6
  end
* xyz 0 1
   C        2.11916        -4.62052        -1.57961
   C        3.36197        -4.08611        -1.88171
   C        4.46455        -4.94095        -1.90821
   C        5.74377        -4.41672        -2.22280
   N        6.77298        -3.98754        -2.48069
   C        4.33111        -6.31620        -1.63270
   C        5.47022        -7.15703        -1.66597
   N        6.37900        -7.85286        -1.68961
   C        3.07809        -6.85127        -1.33277
   C        1.99414        -5.99807        -1.31348
   C        0.57965        -6.33208        -1.03802
   O        0.13915        -7.42108        -0.75557
   C       -0.16779        -5.05665        -1.23707
   C        0.80328        -3.99574        -1.47812
   C        0.54501        -2.65581        -1.52662
   C        1.53172        -1.66611        -1.73706
   N        2.29335        -0.82631        -1.90837
   C       -0.73071        -2.07737        -1.33428
   N       -1.73054        -1.54198        -1.16430
   C       -1.51092        -4.96434        -1.36750
   C       -2.44509        -6.04542        -1.14378
   N       -3.37755        -6.22575        -2.08584
   N       -4.25152        -7.14052        -1.99710
   C       -4.25678        -8.02760        -0.99898
   C       -3.31916        -7.91686         0.04088
   C       -2.42791        -6.87114        -0.00710
   C       -5.27227        -9.06224        -1.05792
   C       -5.92142        -9.56684         0.07905
   C       -7.01696       -10.49065        -0.06285
   N       -7.56048       -11.06125         1.01933
   C       -7.26463       -10.59502         2.21122
   C       -6.29737        -9.54251         2.34180
   N       -5.60543        -9.12417         1.31287
   C       -6.00737        -9.01011         3.62394
   N       -5.80074        -8.58554         4.66691
   C       -7.88980       -11.18586         3.33194
   N       -8.45279       -11.64982         4.21625
   C       -7.57885       -10.81054        -1.31402
   C       -6.90103       -10.35796        -2.45320
   C       -5.73472        -9.50930        -2.31300
   N       -5.22122        -9.18820        -3.49967
   S       -6.10814        -9.84470        -4.65534
   N       -7.20114       -10.58472        -3.73129
   C       -8.80058       -11.55728        -1.23764
   N       -9.42915       -11.44778        -0.05639
   N      -10.30338       -12.28911         0.31664
   C      -10.71412       -13.26815        -0.49155
   C      -10.32917       -13.27215        -1.84494
   C       -9.31522       -12.42039        -2.21825
   C      -11.57697       -14.25749         0.11557
   C      -11.42226       -14.68317         1.38493
   C      -12.52457       -15.39500         2.10606
   O      -13.48165       -15.93392         1.61273
   C      -12.20003       -15.22512         3.53988
   C      -12.96919       -15.54060         4.64148
   C      -12.46079       -15.23674         5.90524
   C      -11.20624       -14.60668         6.03785
   C      -10.43093       -14.29632         4.92012
   C      -10.93014       -14.62556         3.67098
   C      -10.34848       -14.45118         2.34454
   C       -9.01312       -14.36927         2.08374
   C       -8.44686       -14.36595         0.79067
   N       -7.92183       -14.39174        -0.22931
   C       -8.00923       -14.40885         3.07911
   N       -7.14349       -14.49150         3.82583
   C      -10.73046       -14.28722         7.33487
   N      -10.35570       -14.03447         8.38627
   C      -13.21795       -15.55293         7.05979
   N      -13.84625       -15.82097         7.97846
   H        3.50181        -3.03987        -2.10255
   H        2.95764        -7.90332        -1.12309
   H       -1.95630        -4.05067        -1.73943
   H       -3.31551        -8.62728         0.85049
   H       -1.74119        -6.67932         0.80103
   H      -10.75979       -13.98064        -2.53440
   H       -8.87837       -12.42397        -3.20382
   H      -12.42703       -14.62213        -0.44740
   H      -13.93671       -16.00618         4.52992
   H       -9.48761       -13.78647         5.04296
*
