# ORCA input file
# SCF done       -205.653727607304          0.000487848905
! CAM-B3LYP def2-SVP def2/J RIJCOSX Grid4 TightSCF
%maxcore 5000
%tddft
    Mode sTDDFT
    Ethresh 5.0
    maxcore 5000
end

%pal
  nprocs 6
  end
* xyz 0 1
   C        9.91654        -8.54278        -1.94610
   C       11.15912        -7.98881        -2.20611
   C       12.29831        -8.68672        -1.79906
   C       13.57833        -8.13454        -2.05193
   N       14.61026        -7.68333        -2.25744
   C       12.20041        -9.92714        -1.14060
   C       13.37205       -10.61239        -0.74018
   N       14.30551       -11.18610        -0.40679
   C       10.94609       -10.48122        -0.88081
   C        9.83079        -9.78019        -1.28533
   C        8.40829       -10.15792        -1.11449
   O        8.02533       -11.18374        -0.58899
   C        7.62966        -9.05768        -1.70909
   C        8.55879        -8.07263        -2.23128
   C        8.27142        -6.89647        -2.87676
   C        9.24855        -5.99408        -3.35049
   N        9.98560        -5.21634        -3.76192
   C        6.98987        -6.38727        -3.17846
   N        5.99833        -5.88481        -3.46874
   C        6.26118        -8.91680        -1.78193
   C        5.20929        -9.70679        -1.30465
   C        5.15362       -10.91100        -0.59960
   C        3.87371       -11.31827        -0.27585
   C        2.90450       -10.40394        -0.74914
   S        3.58311        -9.07816        -1.58562
   C        1.57122       -10.71210        -0.41918
   C        1.38355       -11.88116         0.34164
  Si        3.03569       -12.72324         0.64885
   C        3.18644       -14.36158        -0.23971
   C        3.48205       -12.79017         2.46223
   C        0.05094       -12.06026         0.67676
   C       -0.78317       -11.05719         0.18771
   S        0.10635        -9.86562        -0.73201
   C       -2.16182       -10.93116         0.42782
   C       -2.94194       -11.73120         1.27714
   C       -4.29898       -11.27175         1.38050
   N       -5.19227       -11.88974         2.14996
   C       -4.77754       -12.94483         2.81876
   C       -5.77010       -13.64319         3.67062
   O       -6.92661       -13.28613         3.75764
   C       -5.24661       -14.80802         4.40523
   C       -3.98230       -15.23553         4.31776
   C       -2.95951       -14.59183         3.47760
   O       -1.81896       -15.00293         3.40832
   C       -3.42529       -13.40290         2.72230
   N       -2.53457       -12.80084         1.96281
   C       -4.56813       -10.13903         0.60119
   S       -3.13611        -9.65743        -0.25228
   C       -5.79830        -9.46641         0.54759
   C       -6.18038        -8.41650        -0.28341
   C       -7.46812        -7.96437        -0.04263
   C       -8.06137        -8.68265         1.01499
   S       -7.06214        -9.92211         1.66205
   C       -9.34608        -8.24546         1.39289
   C       -9.89561        -7.19879         0.63015
  Si       -8.66086        -6.65934        -0.67609
   C       -8.05864        -4.91102        -0.40283
   C       -9.23696        -7.00644        -2.42304
   C      -11.14318        -6.83286         1.11089
   C      -11.53285        -7.52034         2.25627
   S      -10.34343        -8.73194         2.69713
   C      -12.72324        -7.33127         2.98446
   C      -12.96950        -7.64485         4.29219
   C      -14.36010        -7.82636         4.76981
   O      -15.38072        -7.54399         4.18661
   C      -14.22781        -8.48150         6.09550
   C      -15.21916        -8.97074         6.91861
   C      -14.83961        -9.57778         8.11780
   C      -13.47757        -9.68551         8.45807
   C      -12.48138        -9.17694         7.62197
   C      -12.86440        -8.56836         6.44019
   C      -12.07639        -7.91376         5.39530
   C      -10.82306        -7.38786         5.57686
   C      -10.04562        -7.58911         6.73523
   N       -9.37236        -7.73090         7.65369
   C      -10.21552        -6.49520         4.66913
   N       -9.70912        -5.72465         3.98514
   C      -13.11092       -10.32093         9.67022
   N      -12.80578       -10.83511        10.64655
   C      -15.82708       -10.09092         8.99259
   N      -16.64009       -10.49994         9.68773
   H       11.27938        -7.04214        -2.70732
   H       10.84968       -11.43061        -0.37627
   H        5.91633        -8.02034        -2.28282
   H        6.04304       -11.45282        -0.33644
   H        2.91681       -14.29162        -1.29223
   H        2.54196       -15.11634         0.20636
   H        4.20330       -14.74642        -0.19576
   H        3.39787       -11.81972         2.94847
   H        4.50338       -13.13469         2.61083
   H        2.83330       -13.47576         3.00389
   H       -0.33624       -12.87030         1.26786
   H       -5.96759       -15.31220         5.03454
   H       -3.64140       -16.09877         4.87333
   H       -5.51981        -8.01436        -1.03150
   H       -7.79817        -4.72797         0.63827
   H       -8.81734        -4.17939        -0.67351
   H       -7.17676        -4.68734        -1.00002
   H       -9.58129        -8.03132        -2.55061
   H       -8.44048        -6.84535        -3.14661
   H      -10.05978        -6.35536        -2.71115
   H      -11.74823        -6.05073         0.68800
   H      -13.57195        -6.94638         2.42718
   H      -16.25984        -8.88672         6.64466
   H      -11.44613        -9.27893         7.90736
*
