# ORCA input file
# SCF done       -194.349124161405          0.000960962438
! CAM-B3LYP def2-SVP def2/J RIJCOSX Grid4 TightSCF
%maxcore 5000
%tddft
    Mode sTDDFT
    Ethresh 5.0
    maxcore 5000
end

%pal
  nprocs 6
  end
* xyz 0 1
   C      -17.31946        -7.91253       -11.27157
   C      -16.71694        -7.41154       -10.14867
   C      -16.34403        -6.05661       -10.06127
   N      -16.06199        -4.94682       -10.04306
   C      -16.53798        -8.41459        -9.14864
   C      -17.02784        -9.63841        -9.58849
   S      -17.69290        -9.58900       -11.17608
   S      -16.86256       -10.94909        -8.46307
   C      -16.11121        -9.83548        -7.36932
   C      -15.99622        -8.53096        -7.83519
   C      -15.35804        -7.69389        -6.87761
   C      -15.09801        -6.32852        -7.06653
   N      -14.87823        -5.21154        -7.20857
   C      -14.99987        -8.38207        -5.72502
   S      -15.45878       -10.07290        -5.79465
   C      -14.30564        -7.91358        -4.57782
   C      -13.87234        -8.69942        -3.52142
   C      -13.16022        -7.96248        -2.58011
   C      -13.06424        -6.59886        -2.91676
   S      -13.84691        -6.22727        -4.38774
   C      -12.27239        -5.94499        -1.94254
   C      -11.85618        -6.90107        -0.99235
   C      -12.42615        -8.19186        -1.34540
   C      -12.30731        -9.36825        -0.66695
   C      -12.91335       -10.55768        -1.12442
   N      -13.40456       -11.52460        -1.49667
   C      -11.59003        -9.48003         0.54400
   N      -11.02248        -9.58735         1.53392
   C      -10.99606        -6.37341        -0.03733
   C      -10.75947        -5.02016        -0.24113
   S      -11.65316        -4.38949        -1.62013
   C       -9.86881        -4.15467         0.45341
   C       -8.87650        -4.59062         1.36313
   C       -7.91480        -3.67758         1.91442
   N       -6.95925        -4.14090         2.74627
   C       -6.91710        -5.39899         3.04093
   C       -7.86390        -6.30280         2.48965
   N       -8.79348        -5.89853         1.68759
   F       -7.81627        -7.59699         2.78126
   F       -5.96655        -5.81443         3.86972
   C       -7.89666        -2.29575         1.61931
   C       -8.93646        -1.84421         0.77480
   C       -9.88251        -2.76513         0.19693
   N      -10.74951        -2.14322        -0.60338
   S      -10.42181        -0.57175        -0.62303
   N       -9.16383        -0.59425         0.36765
   C       -6.85765        -1.44573         2.08263
   C       -6.77278        -0.06947         1.90748
   C       -5.57169         0.44025         2.38058
   C       -4.72695        -0.55691         2.91333
   S       -5.43927        -2.10893         2.87620
   C       -3.50662         0.05396         3.29227
   C       -3.58252         1.43207         3.01081
   C       -4.88984         1.72240         2.44520
   C       -5.36917         2.93750         2.05234
   C       -6.66049         3.09912         1.50685
   N       -7.70733         3.24301         1.06184
   C       -4.60093         4.11519         2.16718
   N       -3.97482         5.07106         2.26213
   C       -2.40020         2.10624         3.29917
   C       -1.42056         1.25372         3.78374
   S       -1.98230        -0.40768         3.90678
   C       -0.09249         1.63097         4.11779
   C        0.98457         0.83242         4.48122
   C        0.89451        -0.56126         4.61329
   N        0.80651        -1.70025         4.71881
   C        2.17404         1.58488         4.69051
   C        1.95543         2.94272         4.48877
   S        0.33927         3.32906         4.04229
   S        3.34187         3.95726         4.71112
   C        4.25366         2.52750         5.07996
   C        3.53471         1.33901         5.03753
   C        4.37820         0.22877         5.34436
   C        4.00484        -1.12832         5.39116
   N        3.75784        -2.24546         5.44098
   C        5.66498         0.62082         5.59954
   S        5.91463         2.31927         5.48430
   H      -17.56347        -7.36806       -12.16267
   H      -14.06018        -9.75706        -3.46682
   H      -10.53957        -6.92083         0.76539
   H       -7.55838         0.49624         1.44171
   H       -2.23691         3.15954         3.15470
   H        6.48926        -0.01701         5.85232
*
