# ORCA input file
# SCF done       -194.010512981454          0.000752158783
! CAM-B3LYP def2-SVP def2/J RIJCOSX Grid4 TightSCF
%maxcore 5000
%tddft
    Mode sTDDFT
    Ethresh 5.0
    maxcore 5000
end

%pal
  nprocs 6
  end
* xyz 0 1
   C       -6.24544        -1.32189         1.03765
   C       -5.48997        -2.25293         0.37572
   C       -5.63147        -3.64671         0.54233
   N       -5.70258        -4.78801         0.64022
   C       -4.44236        -1.94954        -0.52040
   N       -3.56394        -1.78377        -1.24068
   C       -7.24741        -1.60142         2.05803
   C       -7.68540        -0.37292         2.61188
   C       -8.62404        -0.30540         3.61242
   C       -9.15479        -1.50764         4.09196
   C       -8.71497        -2.72960         3.52915
   C       -7.76684        -2.79785         2.51563
   S       -9.50286        -4.09212         4.26472
   C      -10.39695        -3.01755         5.30650
   C      -10.12276        -1.70514         5.11394
  Br      -11.60742        -3.72785         6.55000
   C       -6.98769         0.74236         1.94770
   O       -7.14508         1.92714         2.16544
   C       -6.11974         0.12002         0.92478
   C       -5.48484         0.78575        -0.08494
   C       -5.26384         2.17793        -0.20993
   C       -5.00297         3.15407         0.74531
   C       -4.91938         4.45376         0.19511
   S       -4.92555         5.94674         1.10384
   C       -4.36221         5.42148         2.75886
   C       -5.09876         4.20544         3.26334
   S       -4.56900         2.70731         2.37519
   C       -5.05772         4.46136        -1.19365
   S       -5.36583         2.86624        -1.80860
   C       -4.94301         5.54557        -2.11329
   C       -5.56732         5.47761        -3.38151
   C       -5.51594         6.56192        -4.32728
   N       -6.08565         6.41918        -5.52673
   C       -6.71267         5.30942        -5.83291
   C       -6.80195         4.24787        -4.87546
   N       -6.23120         4.36088        -3.70218
   C       -7.50650         3.05747        -5.18628
   N       -8.08488         2.10860        -5.46240
   C       -7.29539         5.16923        -7.11663
   N       -7.78307         5.02000        -8.14195
   C       -4.86102         7.78531        -4.04616
   C       -4.10424         7.78443        -2.85590
   C       -4.13287         6.68618        -1.91536
   N       -3.24644         6.86331        -0.93598
   S       -2.47338         8.24749        -1.15514
   N       -3.20498         8.70306        -2.50707
   C       -4.91914         8.86242        -4.97003
   C       -4.60727        10.21088        -4.78131
   C       -4.75312        10.98240        -5.95499
   S       -4.19332        12.62169        -6.19205
   C       -4.12802        13.33814        -4.50682
   C       -4.98045        12.56263        -3.53777
   S       -4.24230        10.91635        -3.22665
   C       -5.22096        10.23911        -7.03942
   S       -5.45088         8.56332        -6.59226
   C       -5.48671        10.55976        -8.38478
   C       -5.77108        11.72103        -9.04899
   C       -6.15880        13.04352        -8.64616
   C       -6.74769        13.39219        -7.45320
   C       -7.05576        14.71224        -7.07146
   N       -7.28396        15.76482        -6.67283
   C       -7.17204        12.46084        -6.49001
   N       -7.53996        11.74439        -5.67016
   C       -5.97889        13.93051        -9.79016
   C       -5.67184        13.14599       -10.92990
   C       -5.60224        11.72594       -10.53316
   O       -5.41007        10.76568       -11.24062
   C       -5.47523        13.69544       -12.17275
   C       -5.57527        15.08619       -12.29443
   C       -5.87420        15.86095       -11.14862
   C       -6.08382        15.30375        -9.89242
   S       -5.94210        17.55569       -11.52325
   C       -5.57590        17.20617       -13.19215
   C       -5.41021        15.88850       -13.45661
  Br       -5.44483        18.61377       -14.42418
   H       -8.93817         0.64436         4.01615
   H       -7.46754        -3.75214         2.11551
   H      -10.58405        -0.90860         5.66868
   H       -5.18951         0.21369        -0.95732
   H       -4.55708         6.28805         3.39132
   H       -3.28772         5.24257         2.70981
   H       -6.17772         4.29164         3.13927
   H       -4.86244         4.01407         4.30985
   H       -4.48924        14.36063        -4.62892
   H       -3.08517        13.35539        -4.18820
   H       -5.99981        12.42841        -3.90094
   H       -4.99721        13.05658        -2.56732
   H       -5.42799         9.69992        -9.05021
   H       -5.25085        13.07416       -13.02546
   H       -6.30677        15.93420        -9.04751
   H       -5.18023        15.49635       -14.43039
*
