# ORCA input file
# SCF done       -188.565233471601          0.000701869922
! CAM-B3LYP def2-SVP def2/J RIJCOSX Grid4 TightSCF
%maxcore 5000
%tddft
    Mode sTDDFT
    Ethresh 5.0
    maxcore 5000
end

%pal
  nprocs 6
  end
* xyz 0 1
   C      -21.26797        -4.77643        -0.71418
   C      -20.49106        -5.90925        -0.79301
   C      -20.98843        -7.18855        -1.11013
   N      -21.32652        -8.25702        -1.36351
   C      -19.09876        -5.97078        -0.58572
   N      -17.96846        -6.11681        -0.43686
   C      -22.70987        -4.73115        -0.95240
   C      -23.15190        -3.39435        -0.80438
   C      -24.46311        -3.02352        -0.97018
   C      -25.38711        -4.02171        -1.29891
   C      -24.93741        -5.35432        -1.44338
   C      -23.60933        -5.72903        -1.27505
   S      -26.24185        -6.42838        -1.85178
   C      -27.35749        -5.08867        -1.82365
   C      -26.78600        -3.89870        -1.52381
  Br      -29.17234        -5.38790        -2.19388
   C      -21.99884        -2.53545        -0.46022
   O      -22.03279        -1.33527        -0.26688
   C      -20.83244        -3.43789        -0.40540
   C      -19.54703        -3.03740        -0.10254
   C      -19.16484        -1.72652         0.16928
   C      -17.86541        -1.36366         0.45954
   C      -17.40168        -0.05027         0.71727
   C      -16.06465         0.03113         0.95950
   C      -15.40155        -1.21772         0.91154
   S      -16.53892        -2.49932         0.54735
   C      -14.05954        -1.47100         1.10480
   C      -13.03368        -0.52263         1.37215
   C      -11.80075        -1.06565         1.49815
   C      -11.76910        -2.48733         1.34545
   S      -13.39953        -3.08346         1.02973
   C      -10.68043        -3.28470         1.40566
   C      -10.70940        -4.73644         1.23054
   S       -9.90119        -5.69714         2.63918
   C       -8.97518        -6.07633         1.21679
   C       -9.65107        -5.32273         0.32493
   C       -9.54199        -5.06620        -1.09635
   O      -10.33211        -4.40486        -1.73221
   O       -8.45566        -5.65244        -1.64173
   C       -8.33999        -5.50657        -3.06058
   C       -9.38168        -6.32342        -3.75880
   C       -9.42198        -7.66436        -3.65228
   C      -10.40935        -8.55960        -4.18169
   C      -10.17908        -9.86233        -3.90861
   C       -8.99000       -10.09686        -3.15792
   S       -8.18563        -8.59176        -2.79193
   C       -8.49253       -11.30626        -2.73202
   C       -9.07654       -12.59282        -2.81919
   C       -8.33938       -13.56546        -2.22217
   C       -7.13264       -13.11290        -1.62165
   S       -6.95955       -11.39849        -1.88451
   C       -6.20884       -13.94040        -1.01380
   C       -4.97685       -13.64453        -0.42949
   C       -4.40526       -12.46746         0.01057
   C       -4.92752       -11.19032         0.38341
   C       -6.20969       -10.92253         0.81937
   C       -6.67397        -9.64198         1.15564
   N       -7.11538        -8.61172         1.41030
   C       -7.16325       -11.93058         1.05498
   N       -7.95305       -12.73524         1.27177
   C       -3.81369       -10.24472         0.42085
   C       -2.60396       -10.96910         0.28696
   C       -2.92329       -12.40148         0.09954
   O       -2.14536       -13.32407         0.00029
   C       -1.37356       -10.36203         0.31768
   C       -1.33666        -8.97049         0.47024
   C       -2.55088        -8.25602         0.58373
   C       -3.79725        -8.87296         0.56672
   S       -2.27450        -6.54795         0.74566
   C       -0.55282        -6.81454         0.66449
   C       -0.20198        -8.11390         0.52215
  Br        0.61559        -5.35028         0.77281
   H      -24.76774        -1.99555        -0.85067
   H      -23.31905        -6.75909        -1.39597
   H      -27.32602        -2.97143        -1.46331
   H      -18.76606        -3.78746        -0.07513
   H      -19.91430        -0.94856         0.14600
   H      -18.07437         0.78880         0.71016
   H      -15.54270         0.94694         1.17095
   H      -13.24552         0.52802         1.45670
   H      -10.90128        -0.51060         1.69595
   H       -9.71309        -2.83672         1.58632
   H      -11.71395        -5.12094         1.05506
   H       -8.14554        -6.75501         1.15817
   H       -7.33301        -5.86714        -3.28912
   H       -8.43945        -4.44997        -3.32515
   H      -10.16903        -5.80368        -4.28181
   H      -11.25108        -8.18422        -4.73549
   H      -10.81123       -10.67255        -4.22467
   H      -10.02622       -12.75617        -3.29531
   H       -8.62706       -14.60025        -2.17029
   H       -6.44501       -14.99519        -1.08700
   H       -4.29109       -14.48607        -0.36906
   H       -0.46622       -10.93787         0.22455
   H       -4.69697        -8.28679         0.65188
   H        0.81421        -8.45725         0.45559
*
