# ORCA input file
# SCF done       -133.313946407154          0.000420829846
! CAM-B3LYP def2-SVP def2/J RIJCOSX Grid4 TightSCF
%maxcore 5000
%tddft
    Mode sTDDFT
    Ethresh 5.0
    maxcore 5000
end

%pal
  nprocs 6
  end
* xyz 0 1
   C       -2.99422        -1.47711         1.16077
   C       -3.88541        -2.46223         1.49915
   C       -3.54019        -3.82121         1.65000
   N       -3.31392        -4.93741         1.79337
   C       -5.26696        -2.25872         1.70085
   N       -6.40295        -2.17086         1.84411
   C       -1.59406        -1.67318         0.81092
   C       -1.05928        -0.43489         0.37792
   C        0.24469        -0.29441        -0.02962
   C        1.06018        -1.43114        -0.01004
   C        0.51854        -2.66252         0.42997
   C       -0.80063        -2.80458         0.84215
   S        1.70212        -3.93354         0.38631
   C        2.89146        -2.81022        -0.21638
   C        2.42847        -1.54757        -0.37727
  Br        4.63217        -3.40932        -0.57266
   C       -2.09763         0.60910         0.47207
   O       -1.94343         1.79799         0.26685
   C       -3.30197        -0.06962         0.98768
   C       -4.42430         0.55241         1.46586
   C       -4.89054         1.85695         1.20497
   S       -5.83987         2.62532         2.45781
   C       -6.11989         4.02056         1.46739
   C       -5.53759         3.86960         0.21664
   C       -4.85404         2.65276         0.06410
   C       -4.26335         2.23810        -1.23867
   C       -4.87679         3.03506        -2.39570
   C       -4.17785         2.71494        -3.61989
   N       -3.59968         2.45394        -4.56962
   C       -4.75245         4.53807        -2.07351
   C       -5.14417         5.34129        -3.20974
   N       -5.48782         5.97343        -4.09672
   C       -5.64749         4.88675        -0.87590
   C       -6.88351         5.09468         2.00245
   S       -7.36842         6.49654         1.08426
   C       -8.20794         7.17034         2.43347
   C       -8.91310         8.46491         2.25428
   C       -8.11092         6.35828         3.54751
   C       -7.36614         5.18643         3.28323
   C       -8.68963         6.61138         4.84515
   S       -8.68298         5.33791         6.03920
   C       -9.47364         6.33697         7.20614
   C       -9.80497         5.76963         8.53949
   C       -9.72031         7.59164         6.70050
   C       -9.27477         7.73078         5.35828
   C      -10.37764         8.67167         7.39833
   S      -11.15634         9.93145         6.47325
   C      -11.66177        10.75318         7.91341
   C      -12.44105        12.01576         7.82745
   C      -11.24124        10.08724         9.02131
   C      -10.51671         8.91076         8.73579
   H        0.62522         0.66116        -0.35481
   H       -1.16641        -3.76184         1.17431
   H        3.02613        -0.73094        -0.73905
   H       -5.02712         0.00300         2.18054
   H       -4.40217         1.16394        -1.39021
   H       -3.18183         2.41941        -1.21065
   H       -5.93547         2.77585        -2.52341
   H       -3.70451         4.76029        -1.83750
   H       -6.69113         4.95289        -1.20554
   H       -5.37095         5.87442        -0.49631
   H       -8.92611         8.73978         1.20189
   H       -8.41100         9.25945         2.80801
   H       -9.93974         8.39368         2.61268
   H       -7.18657         4.42697         4.02434
   H       -9.79926         4.68269         8.49592
   H      -10.78910         6.10807         8.86089
   H       -9.07314         6.08045         9.28709
   H       -9.38070         8.65766         4.82827
   H      -13.35691        11.86596         7.25614
   H      -11.86188        12.79340         7.32922
   H      -12.70150        12.35892         8.82585
   H      -11.44187        10.42743        10.02219
   H      -10.09012         8.29042         9.50123
*
