# ORCA input file
# SCF done       -198.223499083099          0.000599902183
! CAM-B3LYP def2-SVP def2/J RIJCOSX Grid4 TightSCF
%maxcore 5000
%tddft
    Mode sTDDFT
    Ethresh 5.0
    maxcore 5000
end

%pal
  nprocs 6
  end
* xyz 0 1
   C       -3.51480        -2.22841         0.20817
   C       -4.20054        -3.06735        -0.62969
   C       -4.01158        -4.46483        -0.67650
   N       -3.90619        -5.60511        -0.75527
   C       -5.16517        -2.66287        -1.57728
   N       -5.94773        -2.41613        -2.38077
   C       -2.45889        -2.62591         1.12858
   C       -1.90478        -1.46170         1.71311
   C       -0.88091        -1.50613         2.62817
   C       -0.37686        -2.76137         2.98228
   C       -0.93889        -3.92103         2.39558
   C       -1.97517        -3.87568         1.47208
   S       -0.17157        -5.36721         2.97799
   C        0.88037        -4.40811         3.98518
   C        0.66943        -3.07358         3.89261
  Br        2.15608        -5.25921         5.06440
   C       -2.59354        -0.26364         1.19239
   O       -2.36822         0.88085         1.51598
   C       -3.64998        -0.78032         0.27954
   C       -4.69335        -0.06656        -0.22015
   C       -4.85577         1.36147        -0.25446
   C       -6.15856         1.88134        -0.14241
   C       -6.34550         3.23930        -0.14508
   C       -5.24941         4.10882        -0.30563
   C       -3.96781         3.60335        -0.47910
   C       -3.77819         2.23775        -0.44695
   C       -5.73387         5.46905        -0.26440
   C       -7.12799         5.44447        -0.07451
   C       -7.62933         4.02139         0.00408
   C       -8.61195         3.71071        -1.14122
   C       -8.01471         3.96350        -2.52023
   C       -8.30560         3.73510         1.35778
   C       -7.39540         4.02113         2.54623
   C       -7.83712         6.61514         0.01888
   C       -7.16921         7.84937        -0.08159
   C       -5.77810         7.85288        -0.27810
   C       -5.06044         6.67986        -0.36793
   C       -7.94517         9.05496         0.03926
   C       -7.47943        10.31555        -0.11569
   C       -8.24687        11.50793         0.03572
   C       -7.61940        12.76229        -0.17748
   C       -8.31808        14.01676        -0.02656
   N       -7.65598        15.17378        -0.23326
   C       -6.39886        15.14342        -0.58180
   C       -5.70618        13.89565        -0.73511
   N       -6.32324        12.75968        -0.52695
   C       -4.33990        13.88273        -1.10784
   N       -3.23535        13.90557        -1.41213
   C       -5.72639        16.37025        -0.81394
   N       -5.17035        17.34967        -1.02230
   C       -9.66921        14.06690         0.34166
   C      -10.29452        12.83262         0.55840
   C       -9.60755        11.56785         0.40409
   N      -10.42152        10.53958         0.66082
   S      -11.87316        11.09757         1.05018
   N      -11.57319        12.66294         0.91850
   C      -10.41434        15.31810         0.56693
   S       -9.66935        16.48868         1.84791
   C      -10.47467        17.57473         0.60605
   C      -10.30794        16.47696        -0.42739
   N      -11.12435        16.90212        -1.54590
   C      -10.79550        18.34680        -1.58131
   C      -10.12003        18.79260        -0.21412
   C      -10.62898        20.09337         0.30684
   C      -10.76999        21.27366        -0.45999
   C      -11.24152        22.29667         0.36910
   C      -11.53451        23.64306         0.11338
   C      -11.96919        24.41276         1.16990
   C      -12.33384        25.78789         1.25381
   C      -12.69343        26.07633         2.56510
   C      -12.56149        24.88284         3.32555
   C      -12.11974        23.85412         2.49243
   C      -11.82980        22.50573         2.74647
   C      -11.39500        21.73816         1.69039
   C      -11.00407        20.36612         1.60815
   C      -13.12647        27.33714         3.12004
   C      -13.25969        28.47574         2.44550
   H       -0.48106        -0.59980         3.05518
   H       -2.37324        -4.78712         1.05863
   H        1.22702        -2.33817         4.44320
   H       -5.54024        -0.62379        -0.60474
   H       -6.99119         1.20311        -0.02191
   H       -3.13046         4.26610        -0.63387
   H       -2.79182         1.83444        -0.60421
   H       -9.50259         4.32929        -1.01303
   H       -8.91746         2.66524        -1.06543
   H       -7.71864         5.00480        -2.62749
   H       -8.74645         3.73303        -3.29074
   H       -7.13886         3.33901        -2.68168
   H       -8.61278         2.68748         1.37977
   H       -9.20604         4.34795         1.43468
   H       -6.49788         3.40807         2.50195
   H       -7.91553         3.80188         3.47577
   H       -7.09547         5.06660         2.55861
   H       -8.90719         6.60631         0.16919
   H       -5.25431         8.79265        -0.35015
   H       -3.99093         6.70285        -0.51206
   H       -8.99235         8.92274         0.27582
   H       -6.44666        10.49589        -0.37608
   H      -11.43790        15.09519         0.87414
   H      -11.51833        17.65243         0.93336
   H       -9.27184        16.48615        -0.78319
   H      -12.11125        16.76963        -1.33820
   H      -11.69384        18.93371        -1.77322
   H      -10.09486        18.50409        -2.40342
   H       -9.03625        18.85610        -0.35950
   H      -10.54130        21.36315        -1.50688
   H      -11.41511        24.05646        -0.87857
   H      -12.32403        26.47499         0.42828
   H      -12.76950        24.79792         4.37781
   H      -11.94098        22.09311         3.73965
   H      -10.98857        19.67606         2.43178
   H      -13.35356        27.31554         4.17905
   H      -13.04831        28.54498         1.39234
   H      -13.59015        29.38025         2.92590
*
