# ORCA input file
# SCF done       -197.980154396602          0.000589217044
! CAM-B3LYP def2-SVP def2/J RIJCOSX Grid4 TightSCF
%maxcore 5000
%tddft
    Mode sTDDFT
    Ethresh 5.0
    maxcore 5000
end

%pal
  nprocs 6
  end
* xyz 0 1
   C       -5.86941        -2.85944         0.61044
   C       -6.19111        -3.73586        -0.39345
   C       -5.49981        -4.93757        -0.64939
   N       -4.97778        -5.92798        -0.90491
   C       -7.27103        -3.57690        -1.28610
   N       -8.13196        -3.51739        -2.04390
   C       -4.77712        -3.02058         1.56346
   C       -4.83310        -1.97113         2.51306
   C       -3.93550        -1.85978         3.54560
   C       -2.91827        -2.81599         3.63507
   C       -2.86575        -3.85702         2.67817
   C       -3.78294        -3.97995         1.64302
   S       -1.53327        -4.93378         2.97740
   C       -1.07282        -3.98275         4.36418
   C       -1.87231        -2.91426         4.59328
  Br        0.42152        -4.48903         5.37951
   C       -6.00335        -1.11418         2.22122
   O       -6.52326        -0.33084         2.98613
   C       -6.52074        -1.59781         0.91018
   C       -7.42040        -0.92332         0.15119
   C       -7.71363         0.46970         0.34002
   C       -8.95636         1.00899         0.05478
   C       -9.22400         2.35981         0.24188
   C       -8.26311         3.24423         0.70262
   C       -6.95472         2.73792         0.93575
   C       -6.67592         1.36092         0.74231
   N       -5.41838         0.90548         0.88572
   C       -4.47586         1.71853         1.27922
   C       -4.77090         3.08791         1.54252
   N       -5.96818         3.56372         1.33423
   C       -3.72373         4.03672         2.02212
   C       -3.09438         1.16976         1.41092
   C       -8.59549         4.64486         0.95190
   C       -9.46757         5.31217         0.08163
   C       -9.80266         6.62002         0.33061
   C       -9.28160         7.29312         1.44944
   C       -8.41509         6.63985         2.31354
   C       -8.07963         5.32397         2.05883
   C       -9.81727         8.63661         1.46753
   C      -10.67686         8.79094         0.36432
   C      -10.71772         7.52515        -0.45989
   C      -10.17303         7.76882        -1.88014
   C       -8.75968         8.33833        -1.88214
   C      -12.14314         6.95048        -0.54655
   C      -12.75268         6.67548         0.82279
   C      -11.34201         9.96930         0.14754
   C      -11.15895        11.04670         1.03374
   C      -10.27854        10.88158         2.11701
   C       -9.61622         9.69403         2.34471
   C      -11.83318        12.30277         0.86973
   C      -12.83046        12.56610        -0.01575
   C      -13.46488        13.81379        -0.14714
   C      -14.49837        14.05286        -1.01803
   C      -15.18781        15.27089        -1.22977
   C      -16.18268        15.20087        -2.15880
   C      -16.34278        13.92203        -2.73321
   S      -15.17278        12.80681        -2.06018
   C      -17.26638        13.51577        -3.67746
   C      -18.26685        14.28357        -4.31195
   C      -19.03286        13.57503        -5.18660
   C      -18.69196        12.20256        -5.29986
   S      -17.32997        11.86150        -4.24020
   C      -19.33706        11.29364        -6.09781
   C      -19.08559         9.91565        -6.26896
   C      -19.84475         9.07227        -7.08465
   C      -19.31525         7.75975        -7.00833
   C      -19.69411         6.57694        -7.60106
   C      -18.94088         5.42678        -7.30748
   C      -19.06473         4.11316        -7.73150
   C      -18.02856         3.32783        -7.13014
   C      -17.26653         4.16188        -6.33496
   C      -17.79911         5.48753        -6.41115
   C      -17.41934         6.65986        -5.81800
   C      -18.17672         7.81658        -6.10775
   C      -18.04901         9.11834        -5.66897
   C      -17.80162         1.91407        -7.30790
   C      -18.54266         1.09759        -8.05225
   H       -4.01337        -1.05738         4.26238
   H       -3.70459        -4.79498         0.94308
   H       -1.73361        -2.22514         5.40629
   H       -7.89521        -1.40486        -0.69321
   H       -9.75008         0.35069        -0.26752
   H      -10.22714         2.71890         0.06554
   H       -3.32507         3.70573         2.98001
   H       -4.16025         5.02498         2.13429
   H       -2.89882         4.08576         1.31292
   H       -2.40669         1.71072         0.76232
   H       -3.09323         0.11765         1.13856
   H       -2.74336         1.27521         2.43643
   H       -9.84813         4.80331        -0.79206
   H       -8.01443         7.14695         3.17870
   H       -7.42392         4.79742         2.73303
   H      -10.84258         8.45964        -2.39707
   H      -10.18267         6.82253        -2.42549
   H       -8.73001         9.29318        -1.36191
   H       -8.42000         8.49237        -2.90384
   H       -8.07017         7.65698        -1.38845
   H      -12.11239         6.02351        -1.12350
   H      -12.77397         7.65876        -1.08782
   H      -12.15082         5.95644         1.37438
   H      -13.75689         6.27261         0.71210
   H      -12.81172         7.59141         1.40644
   H      -11.99450        10.07556        -0.70506
   H      -10.13075        11.71173         2.79353
   H       -8.95253         9.58985         3.19036
   H      -11.52009        13.09855         1.53513
   H      -13.19336        11.78421        -0.66962
   H      -13.12697        14.63726         0.46822
   H      -14.92494        16.16178        -0.68672
   H      -16.80562        16.03080        -2.44152
   H      -18.39438        15.33135        -4.10639
   H      -19.84263        13.99378        -5.75853
   H      -20.16626        11.68862        -6.67378
   H      -20.69538         9.36719        -7.67137
   H      -20.54106         6.52369        -8.27071
   H      -19.81510         3.73986        -8.40401
   H      -16.41212         3.87408        -5.74979
   H      -16.57288         6.71607        -5.14800
   H      -17.29759         9.47963        -4.99233
   H      -16.94779         1.51950        -6.77037
   H      -19.40400         1.44081        -8.59909
   H      -18.31499         0.04892        -8.13459
*
