# ORCA input file
# SCF done       -143.082597107499          0.007631500063
! CAM-B3LYP def2-SVP def2/J RIJCOSX Grid4 TightSCF
%maxcore 5000
%tddft
    Mode sTDDFT
    Ethresh 5.0
    maxcore 5000
end

%pal
  nprocs 6
  end
* xyz 0 1
   C       -3.04679        -9.27817        -7.95950
   C       -3.12343        -9.76276        -6.71326
   C       -4.23782       -10.42440        -6.09434
   C       -4.02890       -10.78103        -4.80949
   C       -2.73402       -10.44306        -4.31704
   S       -1.78985        -9.65181        -5.55612
   C       -2.24414       -10.66694        -3.05303
   C       -2.88814       -11.26106        -1.93949
   C       -2.13655       -11.30235        -0.80869
   C       -0.84246       -10.73606        -0.95477
   S       -0.61848       -10.17927        -2.61680
   C        0.12298       -10.57198        -0.00727
   N        1.30292        -9.96529        -0.31779
   C        2.33844        -9.68378         0.48968
   S        2.39485       -10.25859         2.12842
   C        4.00670        -9.61425         2.28099
   N        4.64105        -9.78509         3.50538
   O        5.77993        -9.36209         3.62797
   O        4.00100       -10.35956         4.37701
   C        4.45667        -8.99975         1.14171
   C        3.51030        -9.00038         0.10279
   C        3.76302        -8.39290        -1.17317
   C        2.85480        -7.97244        -2.08076
   C        3.18305        -7.45898        -3.36753
   C        2.26697        -7.10260        -4.34876
   C        0.88565        -7.12111        -4.10441
   N       -0.23225        -7.10768        -3.84752
   C        2.89276        -6.68612        -5.55552
   C        4.27659        -6.70644        -5.43700
   S        4.83713        -7.26280        -3.90697
   S        5.14219        -6.17291        -6.84144
   C        3.61484        -5.93607        -7.62576
   C        2.50299        -6.25310        -6.85526
   C        1.30006        -6.08266        -7.59467
   C        0.01734        -6.46879        -7.17885
   N       -1.02667        -6.84506        -6.89195
   C        1.54036        -5.62103        -8.88118
   S        3.23536        -5.41199        -9.22321
   C        0.55476        -5.29367        -9.85836
   O       -0.73084        -5.12829        -9.47731
   C       -1.43698        -4.80100       -10.56776
   C       -0.64586        -4.75491       -11.67295
   C        0.65860        -5.06953       -11.22175
   S        2.08103        -5.30525       -12.21189
   C        1.86939        -4.03602       -13.35685
   C        2.27211        -4.00033       -14.65815
   C        2.81458        -5.00270       -15.50724
   C        3.03638        -4.71053       -16.81038
   C        2.75681        -3.40959       -17.33800
   C        2.25260        -2.41351       -16.57018
   C        1.98962        -2.65932       -15.19303
   C        1.49419        -1.85693       -14.20482
   C        1.40976        -2.62006       -12.97384
   O        1.12280        -2.26858       -11.85425
   H       -3.88080        -9.36293        -8.63529
   H       -2.16830        -8.76530        -8.30862
   H       -5.14983       -10.59161        -6.64026
   H       -4.75451       -11.27385        -4.18742
   H       -3.89410       -11.63422        -2.00759
   H       -2.46494       -11.70866         0.13102
   H       -0.01798       -10.88840         1.01420
   H        1.41708        -9.72199        -1.29705
   H        5.43017        -8.54829         1.07889
   H        4.81236        -8.24895        -1.40357
   H        1.79274        -7.97279        -1.87355
   H       -2.48510        -4.62545       -10.43439
   H       -0.93332        -4.52342       -12.67574
   H        3.02025        -5.97867       -15.09338
   H        3.42957        -5.45958       -17.48098
   H        2.95498        -3.23992       -18.38467
   H        2.04453        -1.43953       -16.97851
   H        1.16877        -0.83589       -14.29063
*
