# ORCA input file
# SCF done       -166.863967164849          0.000548774329
! CAM-B3LYP def2-SVP def2/J RIJCOSX Grid4 TightSCF
%maxcore 5000
%tddft
    Mode sTDDFT
    Ethresh 5.0
    maxcore 5000
end

%pal
  nprocs 6
  end
* xyz 0 1
   C       18.88104       -11.80688       -19.92207
   C       19.32152       -11.55428       -18.67743
   C       20.56656       -10.97516       -18.28196
   C       20.71967       -10.84718       -16.93770
   C       19.62011       -11.30935       -16.18062
   S       18.36754       -11.92197       -17.23189
   C       19.48467       -11.30217       -14.79575
   C       20.39805       -10.84303       -13.83810
   C       19.94837       -10.96971       -12.54311
   C       18.67414       -11.52874       -12.43293
   S       18.04036       -11.90475       -14.01648
   C       17.95133       -11.76052       -11.25345
   C       16.69725       -12.29740       -11.20957
   C       15.94335       -12.49807       -10.04036
   C       14.65262       -13.00953        -9.96248
   C       14.14500       -13.05547        -8.67598
   C       15.03000       -12.58552        -7.71357
   S       16.52766       -12.08457        -8.44869
   C       14.80967       -12.47342        -6.32442
   C       13.62757       -12.73616        -5.63614
   C       13.70223       -12.48571        -4.28010
   C       14.94688       -12.02866        -3.85668
   S       16.03997       -11.93019        -5.23034
   C       15.47562       -11.69027        -2.60541
   C       14.90434       -11.48411        -1.36311
   C       15.80717       -11.21181        -0.26450
   C       15.35373       -10.90546         1.05697
   N       16.23281       -10.70672         2.03782
   C       17.52755       -10.77665         1.77411
   C       17.97886       -11.03959         0.45844
   N       17.11426       -11.25710        -0.51883
   C       19.36367       -11.07643         0.16606
   N       20.49100       -11.09701        -0.03925
   C       18.45011       -10.57926         2.82950
   N       19.21951       -10.42117         3.66433
   C       13.95376       -10.78232         1.38160
   C       13.06461       -11.06911         0.30263
   C       13.51448       -11.43777        -1.01659
   N       12.49509       -11.67304        -1.82503
   S       11.09765       -11.45669        -1.03646
   N       11.74811       -11.05123         0.39075
   C       13.60447       -10.41440         2.66616
   C       12.37529       -10.12965         3.26721
   C       12.26783        -9.74457         4.60944
   C       10.98713        -9.43614         5.01491
   C       10.05274        -9.56654         3.99096
   S       10.79883       -10.11351         2.51922
   C        8.66899        -9.29751         4.04010
   C        7.90543        -8.86987         5.11841
   C        6.57003        -8.67343         4.80759
   C        6.25628        -8.93996         3.47965
   S        7.68169        -9.45879         2.61448
   C        5.00128        -8.81048         2.85803
   C        4.76424        -9.07147         1.53931
   C        3.52889        -8.91911         0.89352
   C        3.25876        -9.16491        -0.45400
   C        1.95747        -8.91145        -0.82341
   C        1.15486        -8.45508         0.23006
   S        2.08866        -8.35782         1.70600
   C       -0.19121        -8.10482         0.18991
   C       -1.04548        -8.12489        -0.93543
   C       -2.31806        -7.72311        -0.67935
   C       -2.55396        -7.35658         0.68145
   S       -1.05564        -7.55583         1.60426
   C       -3.69870        -6.92401         1.23764
   H       19.48865       -11.56954       -20.77706
   H       17.91862       -12.24916       -20.10166
   H       21.29502       -10.67775       -19.01469
   H       21.59262       -10.43179       -16.46652
   H       21.35457       -10.43156       -14.10442
   H       20.51203       -10.66830       -11.67779
   H       18.43532       -11.47670       -10.32729
   H       16.21967       -12.58439       -12.13835
   H       14.11120       -13.32988       -10.83485
   H       13.16341       -13.41978        -8.43322
   H       12.73973       -13.09220        -6.12653
   H       12.88856       -12.62407        -3.59471
   H       16.55112       -11.54807        -2.60366
   H       14.45441       -10.29849         3.33032
   H       13.12902        -9.69375         5.25252
   H       10.73114        -9.11945         6.00990
   H        8.32266        -8.70861         6.09593
   H        5.83087        -8.34100         5.51486
   H        4.18540        -8.46961         3.48301
   H        5.58453        -9.41669         0.92186
   H        4.01812        -9.51957        -1.12856
   H        1.57928        -9.04533        -1.82054
   H       -0.69406        -8.43438        -1.90363
   H       -3.10519        -7.67175        -1.41000
   H       -4.58898        -6.81579         0.64405
   H       -3.76168        -6.67535         2.28086
*
