# ORCA input file
# SCF done       -152.437813486089          0.000244410759
! CAM-B3LYP def2-SVP def2/J RIJCOSX Grid4 TightSCF
%maxcore 5000
%tddft
    Mode sTDDFT
    Ethresh 5.0
    maxcore 5000
end

%pal
  nprocs 6
  end
* xyz 0 1
   C        0.53818         0.38844         5.52016
   C        1.32582        -0.58611         5.99510
   C        2.03407        -0.61299         7.24269
   C        2.74718        -1.74054         7.45652
   C        2.66643        -2.69667         6.40605
   S        1.63966        -2.09176         5.11729
   C        3.26633        -3.93025         6.35302
   C        4.09342        -4.53920         7.33028
   C        4.51408        -5.78438         6.99569
   C        4.05497        -6.25755         5.73272
   S        3.06807        -5.00776         4.98245
   C        4.32664        -7.50746         5.25187
   C        3.92912        -8.14521         4.04397
   C        4.20868        -9.53918         3.89777
   O        4.86003       -10.10605         4.95242
   C        4.82762       -11.50073         5.16448
   C        3.81780       -10.20116         2.74462
   O        4.12942       -11.54599         2.55198
   C        5.25093       -11.74158         1.71584
   C        3.11054        -9.52811         1.71328
   C        2.88460        -8.15167         1.85822
   C        3.28455        -7.48750         2.98619
   C        2.62007       -10.30274         0.62370
   C        2.15002        -9.91533        -0.60035
   C        1.60854       -10.81314        -1.56100
   C        1.24293       -10.23746        -2.73625
   C        1.49113        -8.84725        -2.79659
   S        2.17474        -8.29227        -1.28020
   C        1.27124        -8.00427        -3.86568
   C        0.67221        -8.32594        -5.10486
   C        0.61773        -7.28532        -5.97705
   C        1.18520        -6.07179        -5.50042
   S        1.75639        -6.32069        -3.85442
   C        1.27052        -4.93456        -6.25753
   C        1.86790        -3.67470        -5.98806
   C        1.83248        -2.68211        -7.01469
   O        1.15744        -3.04203        -8.13911
   C        1.37119        -2.37302        -9.36490
   C        2.44115        -1.44923        -6.81224
   O        2.29068        -0.44078        -7.75506
   C        1.41592         0.59112        -7.35357
   C        3.17834        -1.18638        -5.63488
   C        3.13227        -2.14563        -4.60711
   C        2.49608        -3.34317        -4.77665
   C        3.97533        -0.02104        -5.42523
   C        4.58900         0.81020        -6.32162
   C        5.46619         1.86744        -5.93529
   C        6.08541         2.49742        -6.96288
   C        5.73908         1.97958        -8.23761
   S        4.55957         0.68988        -8.07211
   C        6.20120         2.39090        -9.46295
   C        7.15194         3.41401        -9.73550
   C        7.42198         3.59281       -11.04720
   C        6.70034         2.71783       -11.92645
   S        5.65913         1.65726       -10.96267
   C        6.76352         2.66614       -13.26400
   H        0.37279         1.28640         6.08890
   H        0.04907         0.30606         4.56715
   H        1.97414         0.21668         7.92481
   H        3.33462        -1.92766         8.33812
   H        4.34445        -4.04176         8.25002
   H        5.14213        -6.39862         7.61719
   H        4.91550        -8.12733         5.91487
   H        3.83397       -11.91233         4.98049
   H        5.09299       -11.63640         6.21413
   H        5.55570       -12.02653         4.54242
   H        6.15927       -11.32260         2.16528
   H        5.10451       -11.28375         0.73198
   H        5.36345       -12.81908         1.60456
   H        2.35835        -7.61701         1.08479
   H        3.09365        -6.43020         3.06542
   H        2.60477       -11.37242         0.79977
   H        1.50582       -11.86146        -1.34103
   H        0.82025       -10.77460        -3.56634
   H        0.29506        -9.31084        -5.31440
   H        0.19604        -7.34551        -6.96511
   H        0.83678        -5.02151        -7.24504
   H        1.03507        -3.07093       -10.13346
   H        2.42509        -2.13573        -9.51708
   H        0.78371        -1.45483        -9.43390
   H        1.72690         1.04396        -6.40701
   H        0.39148         0.21597        -7.24695
   H        1.45325         1.33980        -8.14314
   H        3.64345        -1.93521        -3.67953
   H        2.49481        -4.05724        -3.97021
   H        4.22256         0.17241        -4.38689
   H        5.61053         2.11190        -4.89693
   H        6.77747         3.31230        -6.84520
   H        7.60377         3.98163        -8.94110
   H        8.11245         4.31756       -11.44119
   H        7.41100         3.33024       -13.80893
   H        6.17679         1.96755       -13.83150
*
