# ORCA input file
# SCF done       -208.171597111170          0.000386274845
! CAM-B3LYP def2-SVP def2/J RIJCOSX Grid4 TightSCF
%maxcore 5000
%tddft
    Mode sTDDFT
    Ethresh 5.0
    maxcore 5000
end

%pal
  nprocs 6
  end
* xyz 0 1
   C       -3.12184         1.06380        -6.46636
   C       -2.14512         0.90783        -5.56340
   C       -1.30020         1.92332        -5.00059
   C       -0.39911         1.46807        -4.10453
   C       -0.45100         0.06234        -3.87887
   S       -1.70646        -0.66145        -4.86989
   C        0.32797        -0.67210        -3.02346
   C        1.36146        -0.20675        -2.16767
   C        1.93976        -1.17848        -1.42363
   C        1.41090        -2.49009        -1.62636
   S        0.14187        -2.40830        -2.84583
   C        1.81936        -3.58771        -0.93155
   C        1.37322        -4.94750        -0.98700
   C        1.80899        -5.82135         0.02963
   C        1.37800        -7.12137         0.04715
   C        0.52180        -7.60564        -0.95926
   C        0.10763        -6.76527        -1.98389
   C        0.52783        -5.45194        -1.98783
   C        0.21737        -8.98967        -0.67788
   C        0.87273        -9.36071         0.51038
   C        1.68164        -8.20609         1.05461
   C        1.21275        -7.80706         2.46581
   C       -0.27239        -7.46973         2.52049
   C        3.18448        -8.54091         1.08507
   C        3.72606        -8.95171        -0.27877
   C        0.72352       -10.61983         1.03336
   C       -0.09386       -11.55257         0.37447
   C       -0.70888       -11.17835        -0.82991
   C       -0.56791        -9.91145        -1.35658
   C       -0.34525       -12.87354         0.89453
   C       -0.09115       -13.27943         2.15740
   C       -0.39388       -14.55268         2.71324
   S       -0.59212       -14.64717         4.43312
   C       -1.09451       -16.30007         4.39401
   C       -1.03430       -16.79389         3.09146
   C       -0.62917       -15.80541         2.13250
   C       -0.44667       -16.18316         0.78917
   C       -0.69091       -17.47640         0.40908
   S       -0.45546       -17.91278        -1.28870
   C       -1.08790       -18.45198         1.35071
   C       -1.24018       -18.12505         2.66358
   C       -1.53559       -16.93654         5.61054
   C       -0.94150       -16.58881         6.83328
   C       -1.39062       -17.16676         7.99354
   C       -2.44274       -18.09895         7.96661
   C       -3.04528       -18.44118         6.76353
   C       -2.59166       -17.85849         5.59854
   C       -2.73350       -18.50058         9.32192
   C       -1.85796       -17.82183        10.19253
   C       -0.88137       -16.97627         9.40620
   C       -0.90409       -15.50291         9.83765
   C       -2.28205       -14.87169         9.67378
   C        0.54957       -17.56357         9.45108
   C        1.18914       -17.64817        10.83045
   C       -1.99558       -17.96055        11.55015
   C       -2.98898       -18.81038        12.07560
   C       -3.82649       -19.50782        11.18794
   C       -3.70963       -19.35303         9.82474
   C       -3.11054       -18.91915        13.49951
   C       -4.03304       -19.64710        14.18244
   C       -4.06384       -19.66344        15.59253
   C       -4.97881       -20.34806        16.34793
   C       -5.05740       -20.38320        17.79417
   C       -4.20318       -19.78463        18.68678
   C       -4.33945       -19.86299        20.08797
   N       -4.39212       -19.88693        21.23489
   C       -3.06941       -19.01583        18.35381
   N       -2.13046       -18.37850        18.17403
   C       -6.21932       -21.18951        18.15682
   C       -6.83341       -21.66239        16.97213
   C       -6.08380       -21.16678        15.79979
   O       -6.34534       -21.39789        14.63647
   C       -7.95694       -22.45186        16.98175
   C       -8.50580       -22.79073        18.22284
   C       -7.88719       -22.31302        19.40202
   C       -6.74901       -21.51622        19.39162
   S       -8.72964       -22.84597        20.82617
   C       -9.88508       -23.69077        19.83029
   C       -9.65424       -23.58182        18.50066
  Br      -11.28843       -24.63617        20.64024
   H       -3.35469         2.03763        -6.85964
   H       -3.70004         0.23205        -6.82455
   H       -1.41010         2.95187        -5.29584
   H        0.30953         2.09069        -3.58730
   H        1.63782         0.83176        -2.12835
   H        2.73503        -1.00995        -0.71828
   H        2.58437        -3.39155        -0.18807
   H        2.46765        -5.44678         0.80092
   H       -0.54001        -7.13040        -2.76690
   H        0.20880        -4.80414        -2.78814
   H        1.79323        -6.94299         2.79634
   H        1.42282        -8.63112         3.15126
   H       -0.50170        -6.63924         1.85652
   H       -0.55671        -7.19076         3.53265
   H       -0.87165        -8.32557         2.21752
   H        3.34822        -9.35143         1.79875
   H        3.73025        -7.66520         1.44322
   H        3.21461        -9.83999        -0.64298
   H        4.78929        -9.17043        -0.20935
   H        3.58471        -8.15350        -1.00407
   H        1.23639       -10.89673         1.94188
   H       -1.32443       -11.90299        -1.34432
   H       -1.06307        -9.64200        -2.27753
   H       -0.84923       -13.54690         0.21610
   H        0.30139       -12.56609         2.87083
   H       -0.07908       -15.47375         0.06666
   H       -0.77439       -19.19875        -1.15239
   H       -1.24157       -19.47069         1.02462
   H       -1.48322       -18.88731         3.38680
   H       -0.13542       -15.86909         6.84068
   H       -3.86879       -19.13897         6.73833
   H       -3.08809       -18.07661         4.66565
   H       -0.17765       -14.94966         9.23892
   H       -0.60226       -15.43100        10.88319
   H       -2.59706       -14.89858         8.63299
   H       -2.25997       -13.83434         9.99950
   H       -3.02115       -15.40363        10.26916
   H        1.17856       -16.95027         8.80191
   H        0.51292       -18.56793         9.02040
   H        1.23758       -16.67272        11.30691
   H        2.20510       -18.02466        10.73219
   H        0.63883       -18.33029        11.47265
   H       -1.36607       -17.41042        12.23392
   H       -4.58338       -20.16807        11.58027
   H       -4.37403       -19.87916         9.15586
   H       -2.39011       -18.34819        14.07597
   H       -4.77848       -20.22936        13.66496
   H       -3.30697       -19.07820        16.09920
   H       -8.39980       -22.79576        16.06010
   H       -6.31777       -21.17818        20.31880
   H      -10.26729       -24.03872        17.74537
*
