# ORCA input file
# SCF done       -182.130751935400          0.000943888036
! CAM-B3LYP def2-SVP def2/J RIJCOSX Grid4 TightSCF
%maxcore 5000
%tddft
    Mode sTDDFT
    Ethresh 5.0
    maxcore 5000
end

%pal
  nprocs 6
  end
* xyz 0 1
   C       -0.13313        -0.83903         3.66814
   C        0.93061        -0.01316         3.41752
   C        0.75774         1.28845         2.92781
   C       -0.48724         1.83194         2.66276
   C       -1.61020         0.99651         2.91346
   C       -1.42023        -0.33929         3.41734
   N       -2.58048        -0.97549         3.59329
   S       -3.77824         0.00319         3.16992
   N       -2.90050         1.27949         2.74293
   C       -0.65095         3.16805         2.16217
   C       -1.82787         3.81542         1.85141
   C       -1.60961         5.11641         1.39209
   C       -0.24855         5.46094         1.35266
   S        0.75652         4.18719         1.87822
   C       -0.13146         6.79310         0.88097
   C       -1.41986         7.29171         0.62454
   C       -2.39108         6.24836         0.92610
   C       -3.74488         6.31775         0.77843
   C       -4.38195         7.47385         0.27920
   N       -4.90082         8.40695        -0.13873
   C       -4.59795         5.23936         1.09610
   N       -5.30312         4.37128         1.34854
   C       -1.41240         8.60776         0.16692
   C       -0.12805         9.11302         0.06420
   S        1.09033         7.93901         0.54577
   C        0.25834        10.40498        -0.36749
   C        1.54234        10.88139        -0.56590
   C        1.54616        12.20352        -1.00672
   C        0.24789        12.74212        -1.13452
   S       -0.96967        11.61530        -0.72259
   C        0.35031        14.07217        -1.58524
   C        1.71941        14.38363        -1.76066
   C        2.50970        13.21467        -1.39363
   C        3.87011        13.10165        -1.41037
   C        4.70566        14.16403        -1.81134
   N        5.38670        15.02663        -2.13915
   C        4.52833        11.91519        -1.02586
   N        5.06639        10.95190        -0.71386
   C        1.92470        15.67076        -2.22023
   C        0.72485        16.37221        -2.39326
   S       -0.67355        15.38352        -1.96980
   C        0.61648        17.68754        -2.85143
   C       -0.52987        18.43900        -2.98243
   C       -0.60414        19.76508        -3.47007
   C       -1.86298        20.29099        -3.47340
   C       -2.84539        19.40901        -2.97847
   S       -2.12876        17.88186        -2.53169
   C       -4.20388        19.63362        -2.80745
   C       -4.95043        20.78211        -3.13718
   C       -6.27420        20.68459        -2.81400
   C       -6.63123        19.46041        -2.20728
   S       -5.22916        18.42148        -2.07848
   C       -7.88162        19.09428        -1.74487
   C       -8.12172        17.87720        -1.11491
   C       -9.33952        17.46894        -0.61014
   C       -9.61274        16.23277         0.07733
   C       -8.71335        15.24072         0.39662
   C       -9.05221        14.06539         1.09578
   N       -9.25648        13.08974         1.66723
   C       -7.33638        15.24615         0.10009
   N       -6.20613        15.16880        -0.09559
   C      -11.03596        16.21382         0.41092
   C      -11.62389        17.42712        -0.04725
   C      -10.58897        18.25465        -0.69492
   O      -10.74798        19.35372        -1.19230
   C      -12.94915        17.69857         0.12730
   C      -13.76736        16.74880         0.78084
   C      -13.18859        15.53106         1.23833
   C      -11.81008        15.27874         1.04280
   C      -14.01254        14.58958         1.88683
   C      -15.34506        14.83758         2.07637
   C      -15.91398        16.03760         1.62596
   C      -15.14156        16.97288         0.99174
   H       -0.01194        -1.84105         4.04485
   H        1.93512        -0.36454         3.59883
   H        1.63560         1.89321         2.74967
   H       -2.78585         3.34208         1.96427
   H       -2.28518         9.18273        -0.08600
   H        2.41807        10.28007        -0.39878
   H        2.88296        16.11235        -2.42614
   H        1.54644        18.16741        -3.12894
   H        0.27451        20.28933        -3.80205
   H       -2.10298        21.28480        -3.80536
   H       -4.50173        21.64235        -3.60064
   H       -7.00280        21.45667        -2.98608
   H       -8.69650        19.79321        -1.86698
   H       -7.27473        17.20973        -1.01139
   H      -13.37019        18.62724        -0.22881
   H      -11.40445        14.34596         1.40055
   H      -13.56938        13.66689         2.23217
   H      -15.96787        14.10967         2.57478
   H      -16.96705        16.21773         1.78367
   H      -15.57430        17.89917         0.64236
*
