# ORCA input file
# SCF done       -192.089253691791          0.000986760721
! CAM-B3LYP def2-SVP def2/J RIJCOSX Grid4 TightSCF
%maxcore 5000
%tddft
    Mode sTDDFT
    Ethresh 5.0
    maxcore 5000
end

%pal
  nprocs 6
  end
* xyz 0 1
   C       -1.16929         3.07001        -3.54907
   C       -0.06682         2.60752        -2.88367
   C        1.21201         2.48059        -3.46818
   N        2.27135         2.36089        -3.89204
   C       -0.06707         2.16801        -1.54189
   N       -0.00552         1.78336        -0.46238
   C       -1.23213         3.44834        -4.95165
   C       -2.58217         3.71144        -5.29521
   C       -2.96814         4.08535        -6.56061
   C       -1.97348         4.20453        -7.53537
   C       -0.62470         3.94544        -7.18312
   C       -0.23567         3.56860        -5.90418
   S        0.43980         4.15791        -8.53766
   C       -0.91872         4.58162        -9.54635
   C       -2.11081         4.56687        -8.90225
  Br       -0.63390         5.00579       -11.34883
   C       -3.44710         3.51349        -4.12220
   O       -4.64467         3.66884        -4.07449
   C       -2.51492         3.17608        -2.99835
   C       -2.84005         3.20495        -1.68376
   C       -4.18424         3.22606        -1.16858
   C       -5.19789         2.50955        -1.71009
   C       -6.54711         2.51071        -1.24996
   C       -7.49217         1.72332        -1.89695
   C       -8.83802         1.70317        -1.49718
   N       -9.93358         1.68163        -1.15182
   C       -7.15836         0.89730        -2.98243
   N       -6.87857         0.20852        -3.85821
   C       -6.92370         3.30931        -0.13033
   C       -6.08558         4.07651         0.61024
   S       -4.36937         4.21433         0.27194
   C       -6.54425         4.83367         1.75710
   C       -7.80227         5.36829         1.82486
   C       -8.30885         6.05877         2.92885
   C       -7.51634         6.22168         4.15206
   C       -6.23579         5.80766         4.28291
   S       -5.36627         4.99963         3.04834
   C       -8.37292         6.89346         5.06387
   C       -9.61017         7.14528         4.46155
   C      -10.47852         7.84317         5.33073
   C       -9.89763         8.08431         6.53569
   S       -8.28052         7.48918         6.67168
   C       -9.57670         6.63558         3.11398
   C      -10.57524         6.72028         2.11111
   C      -11.87582         7.04291         2.30340
   C      -12.83558         7.17631         1.24834
   C      -12.53012         7.39020        -0.05884
   C      -13.46068         7.54536        -1.12241
   C      -13.00698         7.83664        -2.40552
   C      -13.88041         8.01554        -3.48882
   N      -14.59474         8.17671        -4.37453
   C      -11.64094         7.99056        -2.68690
   N      -10.51918         8.11577        -2.90458
   C      -14.85948         7.38116        -0.88683
   C      -15.41683         7.09744         0.31415
   S      -14.49858         7.08059         1.81002
   C      -16.82837         6.82869         0.43900
   C      -17.44218         5.93878         1.24693
   C      -16.93976         4.87806         2.10690
   C      -15.79804         4.14991         1.91250
   C      -15.37664         3.10719         2.76469
   N      -14.97891         2.27411         3.44573
   C      -14.95073         4.30427         0.79382
   N      -14.26930         4.36834        -0.12701
   C      -17.99272         4.56883         3.06449
   C      -19.18542         5.22656         2.66539
   C      -18.91976         6.04213         1.46737
   O      -19.69695         6.69962         0.82019
   C      -20.37102         5.07974         3.34541
   C      -20.37818         4.25558         4.47501
   C      -19.17842         3.61543         4.87373
   C      -17.98154         3.75699         4.18352
   S      -19.41180         2.65167         6.29883
   C      -21.09457         3.10864         6.33833
   C      -21.46411         3.94305         5.33718
  Br      -22.20084         2.44411         7.69763
   H       -4.00536         4.27387        -6.78879
   H        0.80310         3.38778        -5.68337
   H       -3.04923         4.80164        -9.37038
   H       -2.05501         3.26698        -0.93969
   H       -4.97327         1.86332        -2.54683
   H       -7.96114         3.25327         0.17145
   H       -8.43745         5.25285         0.95813
   H       -5.66490         5.95883         5.18549
   H      -11.47490         8.16688         5.09349
   H      -10.32658         8.59046         7.37841
   H      -10.24664         6.48686         1.10760
   H      -12.25845         7.16315         3.30613
   H      -11.48491         7.47345        -0.32264
   H      -15.51165         7.41133        -1.75050
   H      -17.48627         7.43850        -0.17307
   H      -21.26565         5.58290         3.01390
   H      -17.09178         3.25435         4.52497
   H      -22.46127         4.32300         5.21029
*
