# ORCA input file
# SCF done       -233.365989572678          0.000705164336
! CAM-B3LYP def2-SVP def2/J RIJCOSX Grid4 TightSCF
%maxcore 5000
%tddft
    Mode sTDDFT
    Ethresh 5.0
    maxcore 5000
end

%pal
  nprocs 6
  end
* xyz 0 1
   C        3.97689        -2.36069         5.35027
   C        4.74015        -2.83494         6.38031
   F        5.65029        -2.04476         6.96291
   C        4.58099        -4.15721         6.84163
   F        5.34206        -4.59493         7.85295
   C        3.66132        -4.98791         6.26499
   C        2.86172        -4.52913         5.20038
   C        3.01970        -3.19166         4.73454
   C        2.22690        -2.70775         3.66811
   C        1.30795        -3.53729         3.08190
   C        1.16448        -4.87404         3.54898
   C        1.90967        -5.36840         4.58034
   C        0.13946        -5.55626         2.74366
   O       -0.24277        -6.70620         2.88322
   C       -0.31252        -4.58501         1.74272
   C        0.36774        -3.32516         1.98285
   C        0.16193        -2.13263         1.34047
   C       -0.78246        -1.90152         0.31760
   N       -1.53378        -1.63378        -0.50837
   C        0.86371        -0.94510         1.63929
   N        1.40001         0.05130         1.83123
   C       -1.17681        -4.85201         0.71087
   C       -1.85755        -6.03304         0.38042
   C       -2.64210        -6.12958        -0.77684
   C       -3.21459        -7.37691        -0.92599
   C       -2.88272        -8.24881         0.14023
   S       -1.85550        -7.54021         1.29816
   C       -3.50442        -9.49552        -0.10920
   C       -4.21833        -9.42144        -1.31961
   C       -4.06427        -8.08475        -1.87114
   C       -4.59914        -7.60662        -3.03040
   C       -5.41305        -8.40644        -3.86064
   N       -6.07430        -9.06191        -4.52962
   C       -4.37249        -6.28739        -3.47818
   N       -4.18839        -5.21940        -3.85104
   C       -4.84968       -10.61778        -1.65317
   C       -4.62768       -11.59987        -0.70316
   S       -3.62373       -11.03494         0.62310
   C       -5.09951       -12.93648        -0.72081
   C       -4.94551       -13.89858         0.26168
   C       -5.52750       -15.11160        -0.10219
   C       -6.12311       -15.07256        -1.37546
   S       -5.97846       -13.54225        -2.11776
   C       -6.67049       -16.34892        -1.65777
   C       -6.42776       -17.19430        -0.56021
   C       -5.70560       -16.44356         0.45539
   C       -5.28843       -16.89144         1.67353
   C       -5.53076       -18.21204         2.10831
   N       -5.73104       -19.28463         2.45977
   C       -4.59299       -16.06051         2.57780
   N       -4.03034       -15.38261         3.31120
   C       -6.92494       -18.48268        -0.74753
   C       -7.53896       -18.62543        -1.97946
   S       -7.50484       -17.13937        -2.91929
   C       -8.14904       -19.78744        -2.51366
   C       -8.72491       -19.93237        -3.76516
   C       -9.22888       -21.21562        -3.95942
   C       -9.03854       -22.05396        -2.84614
   S       -8.23304       -21.26141        -1.56340
   C       -9.58179       -23.32601        -3.14135
   C      -10.12255       -23.29423        -4.44451
   C       -9.91339       -21.96870        -5.00101
   C      -10.27725       -21.51943        -6.23550
   C      -10.94750       -22.34046        -7.16803
   N      -11.49790       -23.00089        -7.92604
   C      -10.01242       -20.19891        -6.65746
   N       -9.79867       -19.12479        -6.99623
   C      -10.70078       -24.50149        -4.81532
   C      -10.57982       -25.47155        -3.82919
   S       -9.77155       -24.84093        -2.39307
   C      -11.12853       -26.77050        -3.89418
   C      -10.89745       -27.86268        -3.11402
   C      -11.92899       -28.93615        -3.04908
   O      -12.86835       -29.08315        -3.79460
   C      -11.58889       -29.72227        -1.84539
   C      -12.28651       -30.73871        -1.25942
   C      -11.77941       -31.32833        -0.07961
   C      -10.55666       -30.84810         0.47383
   C      -10.06286       -31.43446         1.65645
   C      -10.74856       -32.45118         2.25960
   C      -11.95632       -32.92701         1.71015
   C      -12.46171       -32.37864         0.56474
   F      -12.60763       -33.92368         2.32350
   F      -10.27801       -33.00652         3.38355
   C       -9.85076       -29.80024        -0.16071
   C      -10.35760       -29.25003        -1.30691
   C       -9.84281       -28.20230        -2.18469
   C       -8.52610       -27.83547        -2.28749
   C       -8.02666       -27.04526        -3.34269
   N       -7.58791       -26.43544        -4.21097
   C       -7.51793       -28.28653        -1.41195
   N       -6.66867       -28.61551        -0.71369
   H        4.11102        -1.34569         5.01027
   H        3.55191        -5.99742         6.62908
   H        2.37308        -1.69157         3.34018
   H        1.77716        -6.38584         4.91536
   H       -1.36435        -4.04827         0.00886
   H       -2.76081        -5.30512        -1.45765
   H       -5.44313       -10.78287        -2.53455
   H       -4.43470       -13.70758         1.18835
   H       -6.84940       -19.28707        -0.03793
   H       -8.76310       -19.13406        -4.48447
   H      -11.17124       -24.69853        -5.76170
   H      -11.92185       -26.89421        -4.62620
   H      -13.21271       -31.08828        -1.68920
   H       -9.13788       -31.08518         2.08798
   H      -13.38728       -32.75386         0.15697
   H       -8.93172       -29.44977         0.28160
*
