# ORCA input file
# SCF done       -239.786442690927          0.000244224592
! CAM-B3LYP def2-SVP def2/J RIJCOSX Grid4 TightSCF
%maxcore 5000
%tddft
    Mode sTDDFT
    Ethresh 5.0
    maxcore 5000
end

%pal
  nprocs 6
  end
* xyz 0 1
   C       -2.50146        -1.82588        -3.54953
   C       -1.83879        -1.71819        -2.36533
   C       -1.71971        -0.37291        -1.96548
   C       -2.30804         0.50976        -2.87767
   S       -2.99874        -0.30207        -4.20997
   C       -2.14042         1.84145        -2.39655
   C       -1.44527         1.78821        -1.18217
   C       -1.15995         0.39365        -0.86759
   C       -0.50852        -0.08250         0.23267
   C       -0.01836         0.77236         1.24187
   N        0.37731         1.46392         2.06677
   C       -0.28598        -1.45989         0.43855
   N       -0.10133        -2.57843         0.61131
   C       -1.22332         3.05008        -0.62553
   C       -1.74852         4.05820        -1.40998
   S       -2.52662         3.43862        -2.85447
   C       -1.71033         5.45997        -1.15767
   C       -1.11487         6.10251        -0.11002
   C       -1.26321         7.51071        -0.14817
   C       -0.75591         8.45437         0.76559
   C        0.09904         8.04379         1.86145
   C        1.13776         7.15824         1.82332
   C        1.75898         6.99349         3.08017
   C        1.20468         7.73463         4.08310
   S       -0.11310         8.67602         3.46985
   C        1.59237         7.79815         5.51475
  Cl        3.10348         5.94132         3.30814
   C       -1.09757         9.78474         0.54319
   C       -1.86714        10.20724        -0.57139
   C       -2.34725         9.26791        -1.50795
   C       -2.03869         7.93533        -1.25565
   S       -2.50340         6.57940        -2.24705
   C       -3.12074         9.64912        -2.67288
   C       -4.16609         8.97360        -3.23643
   C       -4.66861         9.60639        -4.39333
   C       -4.01944        10.75543        -4.73775
   S       -2.75311        11.07845        -3.60257
   C       -4.27863        11.66419        -5.88229
  Cl       -5.99483         8.96636        -5.28619
   C       -2.06030        11.60868        -0.56083
   C       -1.45494        12.22914         0.48950
   S       -0.61687        11.13106         1.54055
   C       -1.48418        13.64704         0.76427
   N       -0.97223        14.07641         1.91744
   C       -1.04391        15.37555         2.14851
   C       -1.61391        16.26336         1.25136
   C       -2.09998        15.72254         0.05311
   N       -2.03040        14.41115        -0.17216
   C       -2.68635        16.54046        -0.98723
   C       -2.97044        16.03002        -2.19808
   C       -3.55144        16.73842        -3.28895
   C       -3.75194        16.25111        -4.54930
   C       -4.36632        17.17221        -5.43065
   C       -4.74317        16.96600        -6.77255
   C       -4.38275        15.74720        -7.46956
   C       -3.17509        15.11061        -7.45773
   C       -3.16304        13.95718        -8.27122
   C       -4.34759        13.69301        -8.89497
   S       -5.51551        14.90440        -8.48887
   C       -4.69019        12.57249        -9.80586
  Cl       -1.75643        12.97229        -8.44698
   C       -5.44526        17.99508        -7.38519
   C       -5.75147        19.22065        -6.74149
   C       -5.35200        19.43844        -5.40753
   C       -4.66053        18.40048        -4.78889
   S       -4.11630        18.39103        -3.13438
   C       -5.66239        20.65678        -4.68769
   C       -4.87942        21.32086        -3.78767
   C       -5.52645        22.44037        -3.22093
   C       -6.80193        22.64062        -3.66124
   S       -7.22312        21.42467        -4.81903
   C       -7.76807        23.69972        -3.27565
  Cl       -4.75359        23.45950        -2.06768
   C       -6.41723        20.11537        -7.61271
   C       -6.63327        19.60738        -8.86134
   S       -6.01008        17.98033        -9.03310
   C       -7.27804        20.24156        -9.95926
   C       -7.51305        19.71865       -11.21353
   C       -8.17721        20.62775       -12.04183
   C       -8.44440        21.84693       -11.40814
   S       -7.88595        21.88138        -9.79588
   C       -9.11740        22.69871       -12.33244
   C       -9.27183        22.01212       -13.54130
   C       -8.69030        20.68856       -13.40486
   C       -8.63555        19.70438       -14.34770
   C       -9.17104        19.87317       -15.64188
   N       -9.60448        20.00489       -16.69528
   C       -8.04152        18.45029       -14.09318
   N       -7.56044        17.42865       -13.89358
   C       -9.93038        22.78425       -14.51775
   C      -10.25503        24.01657       -14.03846
   S       -9.77248        24.27310       -12.39381
   H       -2.73708        -2.71921        -4.09229
   H       -1.45890        -2.55920        -1.81468
   H       -0.71093         3.23088         0.30080
   H       -0.60278         5.58784         0.68075
   H        1.48219         6.67237         0.92906
   H        2.47287         7.18329         5.68349
   H        0.78282         7.43600         6.14792
   H        1.81261         8.82419         5.80618
   H       -4.59751         8.07805        -2.83010
   H       -5.06690        11.25084        -6.50618
   H       -3.37901        11.78802        -6.48236
   H       -4.58921        12.64910        -5.53294
   H       -2.63457        12.15813        -1.28163
   H       -0.62743        15.70765         3.09118
   H       -1.67054        17.32021         1.45472
   H       -2.87309        17.58055        -0.75808
   H       -2.73704        14.98874        -2.37820
   H       -3.48459        15.24876        -4.83001
   H       -2.31196        15.46726        -6.92668
   H       -3.87407        11.85470        -9.82957
   H       -4.86400        12.94085       -10.81682
   H       -5.59756        12.07107        -9.47310
   H       -3.86586        21.05214        -3.55574
   H       -7.29110        24.39932        -2.59387
   H       -8.63748        23.26470        -2.78283
   H       -8.11713        24.24051        -4.15444
   H       -6.72037        21.10892        -7.33753
   H       -7.21122        18.72525       -11.49302
   H      -10.15337        22.45414       -15.51577
   H      -10.75762        24.81064       -14.55325
*
