# ORCA input file
# SCF done       -193.784640115833          0.000406696169
! CAM-B3LYP def2-SVP def2/J RIJCOSX Grid4 TightSCF
%maxcore 5000
%tddft
    Mode sTDDFT
    Ethresh 5.0
    maxcore 5000
end

%pal
  nprocs 6
  end
* xyz 0 1
   C        4.08377        -1.24452         4.12541
   C        4.16148        -0.37960         5.17448
   C        3.61930         0.87681         4.84284
   C        3.13989         0.92108         3.52861
   S        3.35279        -0.56148         2.71099
   C        2.61062         2.22040         3.28141
   C        2.76195         2.99035         4.44215
   C        3.39866         2.16924         5.46554
   C        3.70867         2.54148         6.74049
   C        3.43371         3.83549         7.23081
   N        3.20929         4.88637         7.63077
   C        4.31913         1.65700         7.65455
   N        4.81345         0.94140         8.40169
   C        2.26741         4.28850         4.30231
   C        1.73852         4.50533         3.04444
   S        1.85873         3.08408         2.01676
   C        1.13303         5.68853         2.54633
   C        0.54929         5.87347         1.30687
   C        0.02801         7.15963         1.16456
   C        0.22385         7.95932         2.30158
   S        1.04643         7.12954         3.54769
   C       -0.35723         9.23351         2.06569
   C       -0.92699         9.23064         0.78059
   C       -0.69405         7.93427         0.16656
   C       -1.06690         7.53080        -1.08148
   C       -1.76569         8.38012        -1.96529
   N       -2.33401         9.06879        -2.68453
   C       -0.77472         6.24032        -1.57129
   N       -0.53795         5.19232        -1.97171
   C       -1.54790        10.43717         0.46496
   C       -1.44421        11.35917         1.49181
   S       -0.56233        10.72216         2.87365
   C       -2.00147        12.66730         1.48556
   C       -1.81056        13.71271         2.37914
   C       -0.95268        13.61001         3.48447
   N       -0.24305        13.49676         4.37875
   C       -2.56518        14.86996         2.03324
   C       -3.31723        14.65409         0.88462
   S       -3.11618        13.08884         0.20027
   S       -4.30151        15.98716         0.37832
   C       -3.68962        16.87272         1.73611
   C       -2.77799        16.18963         2.53224
   C       -2.31636        17.00717         3.60312
   C       -1.39374        16.60834         4.58190
   N       -0.64417        16.30896         5.39719
   C       -2.89269        18.27030         3.59381
   S       -4.01755        18.47618         2.26553
   C       -2.68006        19.36712         4.47336
   C       -3.42631        20.53229         4.50065
   C       -2.94914        21.43697         5.44668
   C       -1.82145        20.95727         6.13530
   S       -1.36423        19.39011         5.63992
   C       -1.39643        21.95601         7.05093
   C       -2.25931        23.05820         6.94515
   C       -3.27059        22.76550         5.94051
   C       -4.30433        23.56497         5.55113
   C       -4.52099        24.83986         6.11526
   N       -4.69929        25.87582         6.57311
   C       -5.22801        23.16594         4.56195
   N       -5.97916        22.84159         3.75877
   C       -1.90879        24.10761         7.79506
   C       -0.78246        23.81249         8.54040
   S       -0.15255        22.20940         8.19372
   C       -0.13076        24.64789         9.48487
   C        1.02366        24.38230        10.19607
   C        1.38185        25.44809        11.02367
   C        0.49129        26.52660        10.94134
   S       -0.78597        26.23834         9.84755
   C        0.94541        27.55548        11.81580
   C        2.11939        27.12256        12.44297
   C        2.43844        25.78804        11.96965
   C        3.50319        25.01284        12.32382
   C        4.47453        25.44773        13.25005
   N        5.26688        25.79706        14.00167
   C        3.70551        23.72535        11.78350
   N        3.87201        22.67966        11.34361
   C        2.64067        28.08444        13.32927
   C        1.86627        29.20439        13.35531
   S        0.48800        29.12380        12.30874
   H        4.41534        -2.26282         4.08831
   H        4.58455        -0.63477         6.12873
   H        2.28094         5.04447         5.06684
   H        0.50768         5.10069         0.56039
   H       -2.05047        10.65021        -0.46179
   H       -4.27391        20.69721         3.85943
   H       -2.43147        25.04400         7.87342
   H        1.56569        23.45831        10.10306
   H        3.53340        27.96197        13.91466
   H        2.01739        30.09358        13.93389
*
