# ORCA input file
# SCF done       -184.607991334495          0.004291758494
! CAM-B3LYP def2-SVP def2/J RIJCOSX Grid4 TightSCF
%maxcore 5000
%tddft
    Mode sTDDFT
    Ethresh 5.0
    maxcore 5000
end

%pal
  nprocs 6
  end
* xyz 0 1
   C        2.05448         8.44110        12.37798
   C        2.68282         9.48171        11.76650
   C        2.26445         9.62054        10.42852
   C        1.31389         8.65242        10.06549
   S        0.92883         7.60084        11.35782
   C        0.94985         8.86162         8.71163
   C        1.67427         9.96178         8.22045
   C        2.50834        10.48505         9.29478
   C        3.29251        11.60726         9.24778
   C        3.39804        12.40162         8.08942
   N        3.48168        13.06690         7.15833
   C        4.01185        12.07056        10.36712
   N        4.60007        12.45932        11.27239
   C        1.37545        10.26099         6.89312
   C        0.42847         9.40138         6.36166
   S       -0.12672         8.21865         7.54690
   C       -0.09450         9.40770         5.03655
   C       -1.08787         8.55143         4.62129
   C       -1.64173         8.53448         3.34347
   C       -1.16895         9.47166         2.31398
   C       -0.18429        10.37984         2.50009
   S        0.64171        10.60414         3.97747
   C       -1.98597         9.23861         1.17622
   C       -2.92952         8.25671         1.47480
   C       -3.80260         8.00863         0.39221
   C       -3.50613         8.79458        -0.67540
   S       -2.16402         9.85966        -0.41680
   C       -2.71774         7.78693         2.81960
   C       -3.55715         6.80602         3.39214
   C       -3.38134         6.03826         4.50085
   C       -4.36898         5.13050         4.97619
   C       -4.11225         4.20031         5.96228
   C       -5.02999         3.27252         6.44947
   C       -6.40290         3.23113         5.94205
   C       -6.89056         4.05746         4.99243
   S       -5.96101         5.27777         4.23399
   C       -7.03762         2.17384         6.64658
   C       -6.13699         1.57372         7.52731
   C       -6.75719         0.53754         8.26469
   C       -8.06330         0.38154         7.92226
   S       -8.60663         1.47797         6.70160
   C       -4.86322         2.24803         7.41096
   C       -3.66379         1.96678         8.09507
   C       -3.45710         0.87031         8.87842
   C       -2.29424         0.55389         9.62432
   C       -1.17042         1.34285         9.76933
   C       -0.06851         1.02118        10.55403
   C       -0.01805        -0.22335        11.32734
   C       -0.98846        -1.16290        11.32722
   S       -2.43423        -1.01291        10.42363
   C        1.21562        -0.18268        12.03037
   C        1.89525         1.00138        11.73999
   C        3.14919         1.04929        12.39321
   C        3.36967        -0.05882        13.14796
   S        2.08118        -1.21223        13.09951
   C        1.10366         1.77196        10.81091
   C        1.42718         3.01410        10.22890
   C        2.41303         3.84537        10.67252
   C        2.82876         5.03553        10.04015
   C        2.50568         5.53404         8.78179
   C        3.19288         6.70540         8.48716
   C        4.03752         7.13222         9.53054
   S        4.00404         6.05853        10.86552
   C        4.70208         8.30608         9.11912
   C        4.30168         8.61429         7.80153
   C        3.36172         7.61403         7.35733
   C        2.79769         7.48805         6.11361
   C        3.09254         8.37381         5.06146
   N        3.31053         9.05966         4.16770
   C        1.87189         6.47812         5.79500
   N        1.09101         5.68263         5.51746
   C        4.95445         9.75740         7.30055
   C        5.79359        10.29939         8.22504
   S        5.85885         9.41230         9.72322
   H        2.18010         8.10420        13.38752
   H        3.40786        10.11006        12.25173
   H        1.82368        11.05639         6.32571
   H       -1.47310         7.86699         5.36419
   H        0.13932        11.04952         1.71822
   H       -4.60621         7.29388         0.39615
   H       -4.00098         8.82209        -1.62684
   H       -4.46550         6.63690         2.82398
   H       -2.44787         6.04855         5.04330
   H       -3.10594         4.19434         6.35940
   H       -7.90838         4.00218         4.63990
   H       -6.29224        -0.06644         9.02196
   H       -8.76438        -0.32633         8.32007
   H       -2.85992         2.67699         7.95892
   H       -4.24641         0.13713         8.94467
   H       -1.16649         2.28767         9.24501
   H       -0.91891        -2.07196        11.90338
   H        3.87139         1.84055        12.31049
   H        4.23135        -0.28417        13.74560
   H        0.83815         3.31864         9.37436
   H        2.92545         3.60308        11.59129
   H        1.81969         5.04220         8.11677
   H        4.80205        10.17188         6.32021
   H        6.41454        11.16714         8.12264
*
