# ORCA input file
# SCF done       -214.256827608478          0.000553338833
! CAM-B3LYP def2-SVP def2/J RIJCOSX Grid4 TightSCF
%maxcore 5000
%tddft
    Mode sTDDFT
    Ethresh 5.0
    maxcore 5000
end

%pal
  nprocs 6
  end
* xyz 0 1
   C       -0.84128         0.52261        -0.02302
   C       -2.03893         0.78991        -0.63509
   C       -2.57150         0.01487        -1.68658
   N       -3.05054        -0.58698        -2.53814
   C       -2.92052         1.80557        -0.21845
   N       -3.67265         2.60851         0.11070
   C       -0.02409        -0.66192        -0.26998
   C        0.83072        -0.86639         0.85251
   C        1.68808        -1.92662         0.91797
   C        1.73991        -2.83774        -0.16101
   C        0.90323        -2.62659        -1.29513
   C        0.01819        -1.52411        -1.33181
   C        0.97351        -3.53667        -2.36919
   C        1.82562        -4.60654        -2.32578
   C        2.64757        -4.81468        -1.20813
   C        2.60532        -3.94935        -0.14872
   C        0.62862         0.22379         1.82083
   O        1.13355         0.36320         2.91146
   C       -0.29852         1.18059         1.14646
   C       -0.39936         2.44191         1.64980
   C       -0.87159         3.61824         1.02946
   C       -1.05966         3.88943        -0.31847
   C       -1.49783         5.18844        -0.53741
   C       -1.64301         5.92860         0.65450
   S       -1.22506         5.02342         2.03136
   C       -2.10032         7.22689         0.32055
   C       -2.25025         7.30545        -1.07491
   C       -1.89590         6.02052        -1.65728
   C       -1.96970         5.65774        -2.96999
   C       -2.42231         6.55381        -3.95958
   N       -2.79808         7.29644        -4.74892
   C       -1.61025         4.36301        -3.39930
   N       -1.30051         3.31124        -3.73449
   C       -2.68416         8.55666        -1.50446
   C       -2.86235         9.43325        -0.44795
   S       -2.49834         8.69384         1.10192
   C       -3.27129        10.78743        -0.52937
   C       -3.42319        11.70368         0.49505
   C       -3.83592        12.95084         0.02287
   C       -4.00140        12.97467        -1.37267
   S       -3.64214        11.47676        -2.10705
   C       -4.44134        14.26172        -1.75853
   C       -4.55151        15.06479        -0.60600
   C       -4.16482        14.26750         0.54887
   C       -4.11480        14.67087         1.85129
   C       -4.45358        15.98386         2.23954
   N       -4.72935        17.05184         2.55302
   C       -3.71569        13.80182         2.88816
   N       -3.38906        13.09327         3.72839
   C       -5.00909        16.34907        -0.89010
   C       -5.26258        16.52087        -2.24305
   S       -4.90168        15.07313        -3.17569
   C       -5.82370        17.64455        -2.91247
   C       -6.23604        17.54215        -4.22240
   C       -6.89723        18.53024        -4.93573
   C       -7.00611        19.89120        -4.40815
   C       -6.65237        20.22760        -3.14567
   S       -6.03122        19.11920        -1.98928
   C       -7.54455        20.66298        -5.47717
   C       -7.78388        19.84265        -6.58276
   C       -8.34276        20.55579        -7.66441
   C       -8.50492        21.87123        -7.36231
   S       -7.99920        22.29490        -5.76251
   C       -7.42870        18.48722        -6.24962
   C       -7.59978        17.34213        -7.04793
   C       -7.64621        16.07547        -6.51885
   C       -7.58151        14.88442        -7.24820
   C       -7.41392        13.65347        -6.64390
   C       -7.30363        12.36714        -7.29824
   C       -7.51543        12.09686        -8.62751
   C       -7.40781        10.81264        -9.19934
   N       -7.33921         9.79372        -9.72418
   C       -7.89057        13.04340        -9.60221
   N       -8.20204        13.75114       -10.45192
   C       -6.96006        11.37350        -6.28204
   C       -6.92195        12.01936        -5.02300
   C       -7.20632        13.45319        -5.20129
   O       -7.21538        14.28289        -4.30188
   C       -6.63863        11.35777        -3.85443
   C       -6.36955         9.98743        -3.92979
   C       -6.39589         9.34909        -5.19207
   C       -6.69018        10.02154        -6.37460
   S       -6.03522         7.65509        -5.05802
   C       -5.86440         7.82423        -3.33487
   C       -6.06059         9.08434        -2.87743
  Br       -5.45811         6.32313        -2.27956
   H        2.32127        -2.06818         1.78124
   H       -0.59576        -1.38022        -2.20715
   H        0.33656        -3.37385        -3.22611
   H        1.87079        -5.29906        -3.15291
   H        3.31466        -5.66357        -1.19081
   H        3.23606        -4.10416         0.71455
   H        0.01153         2.56305         2.64804
   H       -0.83691         3.18221        -1.09629
   H       -2.85854         8.83659        -2.52803
   H       -3.23925        11.45823         1.52564
   H       -5.17762        17.12250        -0.16216
   H       -6.02721        16.60402        -4.71357
   H       -6.76206        21.22836        -2.75881
   H       -8.60886        20.12669        -8.61302
   H       -8.90140        22.64457        -7.99071
   H       -7.70697        17.48151        -8.11687
   H       -7.72822        15.97542        -5.44935
   H       -7.59575        14.94480        -8.32845
   H       -6.63394        11.87933        -2.90993
   H       -6.69857         9.48845        -7.31052
   H       -6.00061         9.36143        -1.84067
*
