# ORCA input file
# SCF done       -219.441969989429          0.000345036135
! CAM-B3LYP def2-SVP def2/J RIJCOSX Grid4 TightSCF
%maxcore 5000
%tddft
    Mode sTDDFT
    Ethresh 5.0
    maxcore 5000
end

%pal
  nprocs 6
  end
* xyz 0 1
   C        2.88882         0.88086        -2.65893
   C        3.94120         1.52833        -3.30359
   C        3.76461         2.88082        -3.93352
   O        4.40768         3.22433        -4.88371
   O        2.84800         3.68519        -3.38463
   C        5.19103         0.90078        -3.43571
   C        6.28965         1.54589        -4.05972
   N        7.25036         1.98240        -4.50451
   C        5.39580        -0.38443        -2.92401
   C        4.34409        -1.00735        -2.28941
   C        3.09150        -0.38718        -2.13767
   C        2.19830        -1.29496        -1.41381
   C        0.92575        -0.98180        -1.00905
   C        0.33444         0.28167        -1.21624
   N       -0.16868         1.30567        -1.34480
   C        0.04725        -1.83432        -0.30705
   N       -0.72627        -2.46400         0.26154
   C        2.93109        -2.52073        -1.17449
   C        4.28870        -2.36069        -1.69646
   O        5.20109        -3.16667        -1.66334
   C        2.44213        -3.64560        -0.54988
   C        3.06824        -4.85763        -0.24427
   C        2.39138        -5.88729         0.42869
   C        3.19060        -6.98687         0.65530
   C        4.50396        -6.81141         0.14488
   S        4.74206        -5.30096        -0.60099
   C        5.24314        -7.97854         0.43770
   C        4.41863        -8.88553         1.13201
   C        3.09889        -8.29474         1.28473
   C        2.01223        -8.85348         1.88983
   C        2.06020       -10.13966         2.46825
   N        2.10231       -11.18412         2.93921
   C        0.77131        -8.18652         1.97584
   N       -0.23943        -7.65092         2.04761
   C        5.07543       -10.06240         1.47902
   C        6.39370       -10.06333         1.05088
   S        6.82543        -8.58637         0.20526
   C        7.35537       -11.08469         1.24277
   C        8.65739       -11.12006         0.77518
   C        9.32294       -12.27796         1.17156
   C        8.51998       -13.12998         1.95506
   S        6.94683       -12.51064         2.19089
   C        9.28472       -14.26153         2.32077
   C       10.57072       -14.13398         1.76425
   C       10.63790       -12.87901         1.02876
   C       11.71501       -12.36891         0.36535
   C       12.95381       -13.04388         0.33362
   N       13.95762       -13.59739         0.32927
   C       11.65839       -11.13174        -0.31050
   N       11.60504       -10.12550        -0.85707
   C       11.40694       -15.20330         2.07101
   C       10.77627       -16.14638         2.86872
   S        9.11603       -15.69461         3.23453
   C       11.31805       -17.35343         3.39987
   C       12.52593       -17.87863         2.99257
   C       13.09353       -19.03971         3.50662
   C       12.43917       -19.80476         4.56881
   C       11.23876       -19.48745         5.10348
   S       10.32176       -18.12315         4.62406
   C       13.31477       -20.88831         4.84997
   C       14.43849       -20.82951         4.02033
   C       15.33051       -21.89563         4.28152
   C       14.86835       -22.70547         5.27005
   S       13.34325       -22.22281         5.92747
   C       14.31040       -19.67690         3.15760
   C       15.17734       -19.25511         2.13526
   C       16.33105       -19.89357         1.76992
   C       17.13301       -19.45587         0.70593
   C       18.29101       -20.08057         0.30808
   C       19.14567       -19.70231        -0.79592
   C       18.90628       -18.72599        -1.73167
   C       19.78430       -18.41154        -2.78884
   N       20.45717       -18.10629        -3.66789
   C       17.74931       -17.92326        -1.79950
   N       16.83112       -17.24641        -1.93553
   C       20.31000       -20.58380        -0.77965
   C       20.15758       -21.51771         0.27381
   C       18.89112       -21.25166         0.98389
   O       18.45837       -21.88015         1.93127
   C       21.08553       -22.49451         0.53981
   C       22.22330       -22.55223        -0.27181
   C       22.37039       -21.61206        -1.31869
   C       21.43001       -20.62492        -1.58845
   S       23.84921       -21.86017        -2.19710
   C       24.24276       -23.20632        -1.16105
   C       23.31709       -23.45823        -0.20547
  Br       25.83863       -24.15242        -1.43853
   H        1.91733         1.34768        -2.60333
   H        2.39694         3.31395        -2.61381
   H        6.35078        -0.87682        -3.02705
   H        1.40792        -3.61220        -0.22882
   H        1.36204        -5.79362         0.72732
   H        4.63656       -10.88556         2.01385
   H        9.08200       -10.33392         0.17677
   H       12.42830       -15.28286         1.74886
   H       13.05613       -17.34755         2.21593
   H       10.76968       -20.07730         5.87480
   H       16.26681       -22.07754         3.78745
   H       15.33929       -23.58273         5.66838
   H       14.89302       -18.36641         1.58458
   H       16.64565       -20.77690         2.29653
   H       16.80750       -18.57172         0.17309
   H       20.93854       -23.19312         1.34861
   H       21.59037       -19.93230        -2.39746
   H       23.40021       -24.24972         0.51679
*
