# ORCA input file
# SCF done       -185.120754876135          0.000997889651
! CAM-B3LYP def2-SVP def2/J RIJCOSX Grid4 TightSCF
%maxcore 5000
%tddft
    Mode sTDDFT
    Ethresh 5.0
    maxcore 5000
end

%pal
  nprocs 6
  end
* xyz 0 1
   C        2.58833        -0.79121         4.26347
   O        3.72449        -1.18387         4.47352
   C        1.59933        -0.38322         5.24409
   C        0.43012         0.04406         4.62757
   C       -0.55744         0.42915         5.55364
   C       -0.10849         0.28256         6.83386
   S        1.50475        -0.31369         6.94858
   C        0.59770        -0.05039         3.18963
   C       -0.35169         0.32040         2.27499
   C       -1.59980         0.84343         2.67689
   N       -2.61853         1.27663         2.97784
   C       -0.23145         0.25040         0.87271
   N       -0.20562         0.22676        -0.27505
   C        1.92622        -0.59956         2.95511
   C        2.45557        -0.89046         1.72592
   C        3.67436        -1.50311         1.38672
   C        4.06049        -1.74885         0.06221
   C        5.26640        -2.42360        -0.02297
   C        5.79571        -2.70485         1.26109
   S        4.85269        -2.11625         2.54495
   C        7.00272        -3.40088         1.09943
   C        7.27252        -3.56743        -0.27896
   C        6.17917        -2.95163        -1.02635
   C        6.05015        -2.88863        -2.38301
   C        4.95033        -2.26412        -3.00817
   N        4.06123        -1.75892        -3.52641
   C        7.01598        -3.44285        -3.24844
   N        7.80149        -3.89602        -3.95056
   C        8.45772        -4.24739        -0.50716
   C        9.09864        -4.61775         0.68556
   S        8.18553        -4.09018         2.09980
   C       10.30726        -5.31443         0.81548
   C       10.87321        -5.70834         2.01138
   C       12.09343        -6.39013         2.23843
   C       12.36709        -6.64730         3.55559
   C       11.36882        -6.18966         4.43510
   S       10.09015        -5.40930         3.54187
   C       11.19495        -6.24103         5.81322
   C       11.99122        -6.69983         6.87570
   C       11.41236        -6.53305         8.10614
   C       10.12447        -5.94708         8.07799
   S        9.68567        -5.60508         6.42448
   C        9.31041        -5.66896         9.15877
   C        8.01513        -5.13990         9.12386
   C        7.19575        -4.81584         8.03371
   C        5.95596        -4.34827         8.42117
   C        5.78925        -4.29124         9.82515
   S        7.18845        -4.82770        10.65492
   C        4.49224        -3.83001        10.09964
   C        3.81362        -3.61539         8.87286
   C        4.71036        -3.93201         7.78339
   C        4.43496        -3.88944         6.44529
   C        5.39520        -4.17179         5.45340
   N        6.16509        -4.40454         4.63532
   C        3.14032        -3.60111         5.96736
   N        2.07224        -3.42063         5.58906
   C        2.51165        -3.16867         9.05202
   C        2.18418        -2.99490        10.38902
   S        3.52016        -3.46201        11.45038
   C        0.91788        -2.61129        10.87693
   C        0.55379        -2.20161        12.12347
   C       -0.87572        -2.32694        12.54685
   O       -1.82919        -2.52536        11.83003
   C       -0.81152        -2.20260        14.00078
   C        0.47702        -1.89719        14.42517
   C        1.32767        -1.74410        13.26007
   C        2.50001        -1.03326        13.23374
   C        3.12250        -0.58111        14.41357
   N        3.64894        -0.22776        15.37022
   C        3.11410        -0.60260        12.04148
   N        3.59202        -0.19061        11.08217
   C        0.57308        -1.75845        15.82161
   C       -0.63635        -1.97354        16.41489
   S       -1.90886        -2.32573        15.30587
   H       -1.53801         0.78915         5.30351
   H       -0.64591         0.49555         7.73740
   H        1.84787        -0.64397         0.86299
   H        3.45961        -1.43847        -0.77471
   H        8.86253        -4.48439        -1.47475
   H       10.83063        -5.56389        -0.09776
   H       12.73754        -6.67205         1.42396
   H       13.24793        -7.15830         3.90183
   H       12.96426        -7.12988         6.71766
   H       11.87584        -6.82055         9.03352
   H        9.71486        -5.88963        10.13804
   H        7.49141        -4.93109         7.00914
   H        1.81958        -2.95076         8.25912
   H        0.09646        -2.74562        10.17913
   H        1.47347        -1.52502        16.35915
   H       -0.85944        -1.93898        17.46335
*
