# ORCA input file
# SCF done       -149.808099323045          0.000200959174
! CAM-B3LYP def2-SVP def2/J RIJCOSX Grid4 TightSCF
%maxcore 5000
%tddft
    Mode sTDDFT
    Ethresh 5.0
    maxcore 5000
end

%pal
  nprocs 6
  end
* xyz 0 1
   C       -6.09863         1.28668        -0.63478
   S       -4.57534         0.52596        -0.63783
   C       -5.20246        -0.94461         0.05924
   C       -6.58475        -0.81324         0.27462
   C       -7.08839         0.46772        -0.13123
   C       -8.45981         0.77277        -0.00658
   C       -9.33199        -0.16319         0.49107
   C      -10.76261         0.07507         0.63876
   C      -11.44672         1.10499         0.15501
   C       -8.82460        -1.43566         0.87318
   C       -7.50494        -1.75961         0.76947
   C       -4.35355        -2.03112         0.36533
   S       -4.81686        -3.19083         1.57083
   C       -3.36585        -4.13603         1.39551
   C       -2.52412        -3.53565         0.44038
   C       -3.07591        -2.35161        -0.13925
   C       -2.36228        -1.67666        -1.14083
   C       -1.11316        -2.10865        -1.53059
   C       -0.33613        -1.43614        -2.56325
   C       -0.58783        -0.24247        -3.08830
   C       -0.55716        -3.25036        -0.90385
   C       -1.23751        -3.95072         0.04850
   C       -3.22990        -5.36620         2.06323
   S       -2.19524        -6.61031         1.43565
   C       -2.72886        -7.78328         2.59470
   C       -3.65477        -7.21183         3.48601
   C       -3.93622        -5.84439         3.19124
   C       -4.80299        -5.12209         4.02129
   C       -5.41884        -5.73009         5.09543
   C       -6.33218        -5.01737         5.97838
   C       -6.89629        -3.83884         5.73923
   C       -5.14200        -7.09242         5.36223
   C       -4.28279        -7.81887         4.58991
   C       -2.29584        -9.12484         2.52334
   O       -2.85162       -10.04732         3.33922
   C       -2.34877       -11.27382         3.02833
   C       -1.42784       -11.13746         2.00229
   C       -1.38489        -9.77449         1.68023
   C       -0.50741        -9.19080         0.63703
   F       -1.18455        -8.68852        -0.41687
   F        0.26576        -8.18256         1.09139
   F        0.33595       -10.10145         0.13019
   C       -2.82924       -12.39993         3.73133
   C       -2.54613       -13.69328         3.40122
   C       -3.06780       -14.80066         4.08435
   C       -2.89538       -16.10506         3.69294
   C       -3.41880       -17.26011         4.32615
   C       -3.13261       -18.42820         3.69194
   C       -2.36359       -18.26950         2.51305
   S       -2.00094       -16.57317         2.25460
   C       -1.94539       -19.24629         1.64024
   C       -2.19233       -20.64470         1.72622
   C       -1.67407       -21.36660         0.70798
   C       -0.96954       -20.58983        -0.27120
   S       -1.01215       -18.88365         0.20175
   C       -0.36126       -21.02621        -1.38271
   H       -6.19514         2.28600        -1.00912
   H       -8.79716         1.75121        -0.31046
   H      -11.29226        -0.69265         1.18993
   H      -10.98671         1.89211        -0.41762
   H      -12.50801         1.19453         0.31094
   H       -9.52119        -2.17156         1.24830
   H       -7.17183        -2.74487         1.05301
   H       -2.80497        -0.82206        -1.62285
   H        0.53505        -1.98461        -2.90001
   H       -1.42220         0.36499        -2.78146
   H        0.04798         0.17885        -3.84783
   H        0.43196        -3.57159        -1.19526
   H       -0.78556        -4.81477         0.50775
   H       -4.96291        -4.07282         3.83944
   H       -6.56896        -5.53642         6.89930
   H       -6.72426        -3.28447         4.83228
   H       -7.56704        -3.38585         6.44889
   H       -5.62177        -7.55976         6.21027
   H       -4.07088        -8.84900         4.82152
   H       -0.85028       -11.91280         1.54410
   H       -3.49784       -12.19144         4.55513
   H       -1.90949       -13.89364         2.55020
   H       -3.66947       -14.62357         4.96636
   H       -3.99620       -17.18494         5.23106
   H       -3.45466       -19.39592         4.03257
   H       -2.75097       -21.06478         2.54387
   H       -1.76156       -22.43339         0.60204
   H       -0.36048       -22.07231        -1.63330
   H        0.14028       -20.35374        -2.05402
*
