# ORCA input file
# SCF done       -162.365543262648          0.000692020788
! CAM-B3LYP def2-SVP def2/J RIJCOSX Grid4 TightSCF
%maxcore 5000
%tddft
    Mode sTDDFT
    Ethresh 5.0
    maxcore 5000
end

%pal
  nprocs 6
  end
* xyz 0 1
   C       -1.29820        -1.76010         4.29341
   C       -1.98483        -1.89187         3.05622
   C       -1.46336        -1.29006         1.92297
   C       -0.26838        -0.55669         2.00077
   C        0.40916        -0.43171         3.24694
   C       -0.13714        -1.05339         4.38929
   N        1.55655         0.27022         3.34443
   C        2.01105         0.82298         2.25257
   C        1.34123         0.69990         1.01426
   N        0.23152         0.02907         0.88981
   C       -3.21611        -2.63822         2.96659
   C       -4.02981        -2.87597         1.87144
   C       -5.15149        -3.65652         2.29414
   C       -4.98818        -3.94945         3.70909
   O       -5.61022        -4.61898         4.49872
   N       -3.80493        -3.26954         4.03538
   C       -5.91875        -3.90729         1.17768
   O       -5.33706        -3.34514         0.08585
   C       -4.17454        -2.67399         0.44468
   O       -3.51544        -2.07876        -0.36440
   C       -7.14317        -4.62214         1.05437
   C       -7.53987        -5.26727        -0.13831
   C       -8.78361        -5.99546        -0.22534
   N       -9.14481        -6.54181        -1.39094
   C       -8.34981        -6.43232        -2.43086
   C       -7.07257        -5.79799        -2.31447
   N       -6.70795        -5.23910        -1.18918
   C       -6.19603        -5.79205        -3.42859
   N       -5.54192        -5.82506        -4.36818
   C       -8.78965        -6.95150        -3.66921
   N       -9.14960        -7.34248        -4.68561
   C       -9.63576        -6.16431         0.90176
   C       -9.25560        -5.47535         2.07196
   C       -8.03795        -4.70063         2.14081
   N       -7.94045        -4.03413         3.28740
   S       -9.20802        -4.37716         4.20232
   N       -9.97802        -5.34432         3.18290
   C      -10.83643        -6.92677         0.80772
   O      -11.39351        -7.10796        -0.40393
   C      -12.51823        -7.84084        -0.27215
   C      -12.69406        -8.16166         1.07174
   C      -11.62429        -7.58836         1.76228
   C      -11.39184        -7.83975         3.21395
   F      -10.09715        -7.94672         3.54147
   F      -11.94146        -6.92444         4.02519
   F      -11.95306        -9.01314         3.57517
   C      -13.30347        -8.17812        -1.39194
   C      -12.94008        -7.90269        -2.68434
   C      -13.74660        -8.22031        -3.78178
   C      -13.41074        -8.00472        -5.10116
   C      -12.20778        -7.49823        -5.65165
   C      -12.20737        -7.41915        -7.00930
   C      -13.41275        -7.85027        -7.61490
   S      -14.54384        -8.37721        -6.38602
   C      -13.71454        -7.87625        -8.95899
   C      -12.86647        -7.47543       -10.03147
   C      -13.42272        -7.60317       -11.25575
   C      -14.76279        -8.11717       -11.24576
   S      -15.25423        -8.42656        -9.57152
   C      -15.56191        -8.34503       -12.29663
   H       -1.69785        -2.22602         5.18149
   H       -1.95259        -1.36788         0.96419
   H        0.38850        -0.94993         5.32573
   H        2.93107         1.38541         2.33977
   H        1.73190         1.16483         0.11909
   H       -3.43001        -3.29086         4.97059
   H      -13.48029        -8.75456         1.49224
   H      -14.23120        -8.69121        -1.18505
   H      -11.98698        -7.42218        -2.85188
   H      -14.71393        -8.66202        -3.58049
   H      -11.36190        -7.23178        -5.04461
   H      -11.37145        -7.06620        -7.58493
   H      -11.87226        -7.10805        -9.85158
   H      -12.93784        -7.35294       -12.18241
   H      -15.22368        -8.14130       -13.29740
   H      -16.55675        -8.73367       -12.17793
*
