# ORCA input file
# SCF done       -163.466401575253          0.000708516372
! CAM-B3LYP def2-SVP def2/J RIJCOSX Grid4 TightSCF
%maxcore 5000
%tddft
    Mode sTDDFT
    Ethresh 5.0
    maxcore 5000
end

%pal
  nprocs 6
  end
* xyz 0 1
   C       -8.02896        -2.49237        -2.57325
   C       -6.64777        -2.48238        -2.88345
   C       -6.23899        -2.47686        -4.19880
   C       -7.19220        -2.42729        -5.23066
   C       -8.57828        -2.39631        -4.90977
   C       -8.97249        -2.44353        -3.55667
   N       -9.50904        -2.33347        -5.88414
   C       -9.08076        -2.30801        -7.11682
   C       -7.70621        -2.35968        -7.43591
   N       -6.78179        -2.41956        -6.51788
   C       -5.68632        -2.51792        -1.77931
   C       -4.56317        -1.74909        -1.71471
   O       -3.64895        -1.84583        -0.67626
   C       -3.99164        -2.72152         0.31110
   C       -5.19492        -3.48372         0.26225
   C       -5.35834        -4.28472         1.34362
   S       -4.04122        -4.12353         2.44285
   C       -3.26549        -2.96211         1.42955
   O       -6.05924        -3.39659        -0.79190
   C       -4.26882        -0.71480        -2.65830
   C       -3.12642         0.00503        -2.62474
   C       -2.79317         1.07512        -3.50823
   S       -1.10986         1.42454        -3.75424
   C       -1.44475         2.68143        -4.90578
   C       -2.80958         2.79100        -5.10546
   C       -3.57241         1.92090        -4.28031
   C       -5.05863         2.03556        -4.12944
   F       -5.45377         1.81377        -2.86019
   F       -5.51267         3.25900        -4.42114
   F       -5.75512         1.16927        -4.88939
   C       -3.40795         3.60663        -6.21139
   F       -2.57584         3.71018        -7.26483
   F       -4.52443         3.05773        -6.70397
   F       -3.71269         4.86790        -5.85687
   C       -0.34323         3.43227        -5.41983
   C       -0.39575         4.72624        -5.80546
   C        0.71893         5.47342        -6.27657
   S        0.53816         7.18347        -6.53935
   C        2.19972         7.32259        -7.03470
   C        2.83374         6.09429        -7.00335
   C        2.00509         5.06193        -6.57575
   C        2.74842         8.54561        -7.38012
   C        3.21946         9.63021        -7.65911
   C        3.76679        10.87087        -7.95716
   C        5.03501        11.03899        -8.39407
   C        5.60030        12.31814        -8.66867
   O        4.89837        13.44999        -8.47770
   C        5.68193        14.50495        -8.80226
   C        6.91667        14.05541        -9.21566
   C        6.86797        12.65141        -9.13071
   C        7.95563        11.70165        -9.46966
   F        8.31722        10.92972        -8.42446
   F        7.60929        10.84141       -10.44887
   F        9.06621        12.32184        -9.88521
   C        5.13035        15.82634        -8.66374
   C        5.78453        16.95300        -8.93246
   H       -8.32129        -2.52445        -1.53474
   H       -5.19748        -2.53674        -4.47301
   H      -10.02742        -2.43541        -3.33196
   H       -9.83372        -2.24965        -7.89144
   H       -7.36995        -2.35233        -8.46418
   H       -6.16714        -4.95289         1.55295
   H       -2.33006        -2.52882         1.71480
   H       -5.02891        -0.52785        -3.39643
   H       -2.35472        -0.27229        -1.92043
   H        0.60698         2.91784        -5.40108
   H       -1.32300         5.27603        -5.73178
   H        3.86531         5.97218        -7.28144
   H        2.32801         4.04006        -6.49444
   H        3.12466        11.73073        -7.81426
   H        5.68044        10.18715        -8.54796
   H        7.75138        14.64205        -9.53725
   H        4.10868        15.84855        -8.31023
   H        6.80113        16.95160        -9.28441
   H        5.31681        17.91297        -8.80731
*
