# ORCA input file
# SCF done       -165.765469120321          0.000353525362
! CAM-B3LYP def2-SVP def2/J RIJCOSX Grid4 TightSCF
%maxcore 5000
%tddft
    Mode sTDDFT
    Ethresh 5.0
    maxcore 5000
end

%pal
  nprocs 6
  end
* xyz 0 1
   C        2.52318       -14.94559         2.94295
   S        2.80199       -13.42188         3.65389
   C        2.38260       -12.57709         2.19016
   C        2.02454       -13.49064         1.18929
   C        2.10966       -14.84863         1.63139
   C        1.77004       -15.89398         0.73933
   C        1.34681       -15.61241        -0.52290
   C        0.97231       -16.68388        -1.49556
   C        1.24479       -14.24688        -0.95265
   O        0.79493       -14.09789        -2.22626
   C        0.64926       -12.79900        -2.74404
   C        1.58004       -13.21229        -0.11769
   C        2.39967       -11.17190         2.08428
   C        2.59193       -10.30585         3.10889
   C        2.64593        -8.87852         3.04130
   C        2.17275        -8.04592         2.05438
   O        2.52055        -6.69850         1.99722
   C        3.20601        -6.21357         3.06611
   C        3.58780        -7.05383         4.15131
   C        4.23966        -6.38399         5.13328
   S        4.40019        -4.71094         4.74597
   C        3.57624        -4.92189         3.24443
   O        3.32915        -8.38914         4.14420
   C        1.29279        -8.36028         0.97174
   C        0.32515        -9.31015         0.96420
   C       -0.50758        -9.60908        -0.14013
   S       -1.79298       -10.79208         0.07235
   C       -2.25217       -10.61905        -1.56598
   C       -1.43816        -9.70628        -2.24895
   C       -0.46040        -9.13487        -1.44635
   C       -1.87448        -9.62852        -3.67275
   O       -1.39338        -8.97317        -4.56429
   C       -3.02702       -10.56143        -3.72764
   C       -3.22318       -11.13180        -2.46458
   S       -4.55233       -12.19900        -2.42879
   C       -4.89482       -11.85006        -4.12069
   C       -3.96235       -10.98917        -4.66636
   C       -5.95313       -12.50782        -4.81547
   S       -5.62564       -13.17796        -6.38249
   C       -7.18865       -13.92140        -6.49804
   C       -7.97412       -13.58364        -5.39176
   C       -7.26433       -12.78221        -4.42922
   C       -7.96546       -12.27105        -3.30199
   C       -7.41854       -11.30711        -2.42880
   N       -7.07332       -10.47615        -1.71667
   C       -9.28942       -12.61282        -3.10306
   C       -9.98127       -13.37785        -4.04208
   C       -9.36157       -13.82283        -5.19552
   C      -10.20396       -14.38635        -6.17991
   N      -10.97919       -14.77395        -6.93192
   C       -7.45073       -14.78280        -7.59884
   C       -8.22014       -15.89600        -7.52760
   C       -8.53681       -16.74272        -8.61824
   S       -9.53471       -18.15440        -8.31739
   C       -9.49718       -18.56718        -9.97120
   C       -8.74915       -17.66012       -10.71872
   C       -8.20644       -16.62922        -9.96287
   C       -8.79205       -18.11670       -12.12650
   O       -8.27270       -17.62693       -13.09762
   C       -9.64455       -19.36639       -12.09231
   C      -10.03629       -19.59739       -10.80798
   C       -9.91688       -20.09235       -13.29898
   C      -10.65917       -21.19672       -13.39124
   H        2.67002       -15.83663         3.52041
   H        1.84645       -16.91627         1.07810
   H        1.09817       -17.66851        -1.05405
   H        1.58969       -16.60887        -2.38915
   H       -0.06341       -16.55911        -1.80715
   H        0.26933       -12.92250        -3.75691
   H        1.60627       -12.26905        -2.77950
   H       -0.06640       -12.21291        -2.16005
   H        1.50472       -12.18614        -0.43871
   H        2.23652       -10.78473         1.08977
   H        2.83144       -10.69880         4.08900
   H        4.63202        -6.77145         6.04980
   H        3.41568        -4.09174         2.58940
   H        1.36790        -7.66855         0.14363
   H        0.16213        -9.90574         1.85163
   H        0.25748        -8.41279        -1.78774
   H       -3.99688       -10.66451        -5.69066
   H       -9.81095       -12.22735        -2.23999
   H      -11.03291       -13.57505        -3.89801
   H       -6.92391       -14.55294        -8.51440
   H       -8.63134       -16.19477        -6.57331
   H       -7.60646       -15.83248       -10.36139
   H      -10.64883       -20.40622       -10.45438
   H       -9.46032       -19.66637       -14.18370
   H      -11.12741       -21.64360       -12.53072
   H      -10.82104       -21.68699       -14.33499
*
