# ORCA input file
# SCF done       -181.118525164564          0.000818078110
! CAM-B3LYP def2-SVP def2/J RIJCOSX Grid4 TightSCF
%maxcore 5000
%tddft
    Mode sTDDFT
    Ethresh 5.0
    maxcore 5000
end

%pal
  nprocs 6
  end
* xyz 0 1
   C        0.08904        -8.74629         8.45468
   S       -1.18639        -8.89375         7.33232
   C       -0.09849        -8.86209         5.96888
   C        1.22550        -8.74732         6.41518
   C        1.32118        -8.67847         7.84168
   C        2.59281        -8.55501         8.45077
   C        3.72058        -8.51975         7.69055
   C        5.08338        -8.39261         8.29231
   C        3.61880        -8.61279         6.26291
   O        4.82085        -8.59379         5.62173
   C        4.84725        -8.75249         4.22651
   C        2.40179        -8.71432         5.64054
   C       -0.56881        -8.92889         4.64353
   C       -1.87613        -9.08962         4.29736
   C       -2.34878        -9.11130         2.97219
   S       -4.04356        -9.37876         2.66006
   C       -3.87151        -9.24043         0.93326
   C       -2.52927        -9.00240         0.62807
   C       -1.67601        -8.92827         1.75971
   N       -0.35416        -8.65964         1.60810
   C        0.08198        -8.50016         0.39323
   O        1.36391        -8.22232         0.14909
   C        2.20641        -8.04100         1.28008
   C        1.95898        -6.70349         1.96746
   C       -0.78912        -8.61562        -0.76667
   O       -0.21864        -8.48746        -1.95852
   C       -1.06603        -8.58765        -3.10118
   C       -1.79307        -7.28077        -3.38353
   N       -2.06256        -8.84692        -0.63212
   C       -4.91353        -9.29222        -0.00992
   S       -4.54192        -8.94499        -1.67058
   C       -6.22511        -9.11075        -2.12989
   C       -7.01467        -9.43428        -1.02582
   C       -6.27226        -9.55022         0.15459
   C       -6.89551        -9.93257         1.45816
   C       -8.19200       -10.70473         1.20664
   C       -7.97162       -12.08598         0.59884
   O       -8.71293       -12.54487        -0.23222
   C       -6.79369       -12.86504         1.12857
   C       -9.10287        -9.85255         0.32208
   C       -8.49253        -9.65436        -1.06629
   C       -6.52023        -8.89074        -3.48993
   C       -7.72667        -8.96655        -4.11994
   C       -7.89834        -8.70623        -5.49321
   S       -6.54694        -8.33284        -6.52032
   C       -7.53187        -8.20895        -7.94913
   C       -8.87722        -8.44959        -7.63535
   C       -9.08871        -8.71644        -6.24073
   C      -10.40895        -8.93330        -5.77184
   C      -10.73259        -9.12040        -4.41079
   N      -11.08905        -9.24930        -3.32711
   C      -11.46988        -8.92734        -6.66215
   C      -11.26199        -8.69860        -8.01969
   C       -9.99274        -8.45211        -8.51426
   C       -9.89438        -8.21410        -9.90120
   N       -9.90877        -8.03112       -11.03506
   C       -6.96131        -7.89758        -9.20059
   C       -5.64015        -7.65065        -9.39979
   C       -5.06331        -7.33372       -10.65383
   S       -3.35030        -7.01998       -10.75235
   C       -3.45807        -6.74228       -12.46907
   C       -4.75631        -6.89127       -12.91281
   C       -5.65335        -7.22079       -11.90020
   C       -2.33543        -6.41881       -13.21648
   C       -1.34084        -6.13988       -13.85118
   C       -0.19776        -5.81507       -14.59366
   C       -0.19864        -5.64947       -15.91550
   H       -0.12639        -8.71834         9.50419
   H        2.65297        -8.49252         9.52702
   H        5.02222        -8.32045         9.37459
   H        5.58359        -7.50828         7.90096
   H        5.69253        -9.25429         8.02371
   H        5.90070        -8.76099         3.95039
   H        4.34776        -7.92341         3.71489
   H        4.38441        -9.69629         3.91985
   H        2.32027        -8.77612         4.56781
   H        0.16063        -8.83783         3.85301
   H       -2.62107        -9.20426         5.07498
   H        3.22080        -8.09132         0.87716
   H        2.04534        -8.86881         1.98003
   H        2.06556        -5.89336         1.25028
   H        2.67596        -6.55786         2.77088
   H        0.95563        -6.67767         2.38466
   H       -1.79049        -9.39260        -2.94319
   H       -0.39089        -8.84282        -3.92111
   H       -2.47093        -7.05001        -2.56651
   H       -2.36861        -7.37815        -4.29915
   H       -1.07802        -6.46955        -3.49649
   H       -7.12387        -9.02805         2.03155
   H       -6.19598       -10.51546         2.05766
   H       -8.68645       -10.88530         2.16985
   H       -5.87830       -12.45886         0.70140
   H       -6.88384       -13.90563         0.82676
   H       -6.73143       -12.79717         2.21140
   H       -9.25397        -8.88542         0.80521
   H      -10.07394       -10.33383         0.20894
   H       -8.98419        -8.80725        -1.54920
   H       -8.69674       -10.54171        -1.67208
   H       -5.66012        -8.62210        -4.09414
   H       -8.61092        -9.24381        -3.57576
   H      -12.47058        -9.09649        -6.29399
   H      -12.10204        -8.70245        -8.69806
   H       -7.63747        -7.85295       -10.03929
   H       -4.96411        -7.69101        -8.55476
   H       -5.02895        -6.76082       -13.94502
   H       -6.70410        -7.37452       -12.06741
   H        0.71316        -5.70420       -14.01694
   H       -1.09944        -5.75847       -16.49621
   H        0.70095        -5.40126       -16.45140
*
