# ORCA input file
# SCF done       -150.918321613460          0.000253758715
! CAM-B3LYP def2-SVP def2/J RIJCOSX Grid4 TightSCF
%maxcore 5000
%tddft
    Mode sTDDFT
    Ethresh 5.0
    maxcore 5000
end

%pal
  nprocs 6
  end
* xyz 0 1
   O       -1.91108         8.37450        -1.28216
   C       -2.27675         7.10165        -0.99121
   N       -3.02126         6.55806        -1.91144
   C       -3.16391         7.51767        -2.87453
   C       -2.46947         8.63377        -2.46587
   C       -3.93761         7.29929        -4.08943
   O       -4.09002         8.11496        -4.96172
   C       -1.85627         6.47866         0.21660
   S       -2.37240         4.82120         0.56164
   C       -1.48926         4.93901         2.02567
   C       -0.88436         6.20018         2.13458
   N       -1.10223         7.03143         1.12389
   C       -0.11102         6.31564         3.40863
   C       -0.35192         4.96409         4.01280
   C       -1.16091         4.18778         3.17650
   S       -1.47183         2.62920         3.82081
   C       -0.50734         3.01286         5.23638
   C        0.01482         4.29752         5.17334
   C       -0.32062         2.08716         6.28930
   C       -0.84087         0.83637         6.33536
   C       -0.63967        -0.06082         7.40979
   S        0.30890         0.36269         8.80762
   C        0.03785        -1.18630         9.53465
   C       -0.76378        -1.98979         8.72197
   C       -1.13446        -1.35533         7.52854
   S       -2.03576        -2.07649         6.19968
   C       -2.58579        -3.68234         6.69478
   O       -3.08872        -4.37623         5.85026
   C       -2.48647        -4.17813         8.11069
   O       -3.16893        -5.10627         8.46597
   S       -1.29730        -3.56867         9.26839
   C        0.58555        -1.56867        10.78363
   O        0.39766        -2.84595        11.16739
   C        0.97780        -3.03878        12.38004
   C        1.55809        -1.84798        12.79087
   C        1.31275        -0.91029        11.77467
   C        1.74933         0.50848        11.78835
   F        0.72358         1.37564        11.67459
   F        2.38579         0.82740        12.92244
   F        2.59751         0.80892        10.78380
   C        0.89471        -4.32455        12.96665
   C        0.27797        -5.33203        12.28051
   C        0.04004        -6.65252        12.67319
   C       -0.61552        -7.52319        11.82906
   C       -1.02142        -8.85846        12.06909
   C       -1.70235        -9.43171        11.03665
   C       -1.86014        -8.58537         9.91487
   S       -1.10553        -7.03832        10.21558
   C       -2.50758        -8.81583         8.72011
   C       -3.24397        -9.97045         8.32775
   C       -3.81324        -9.87016         7.10671
   C       -3.56336        -8.62223         6.44048
   S       -2.53647        -7.60804         7.46324
   C       -4.01095        -8.21450         5.24545
   H       -2.32150         9.59525        -2.91318
   H       -4.38213         6.29009        -4.13732
   H       -0.48682         7.12385         4.03840
   H        0.94780         6.50502         3.22422
   H        0.63209         4.70687         5.95234
   H        0.28996         2.43044         7.11544
   H       -1.45171         0.47362         5.51878
   H        2.09164        -1.67022        13.70146
   H        1.32422        -4.46356        13.94569
   H       -0.09482        -5.07391        11.29727
   H        0.34460        -6.99875        13.65051
   H       -0.81068        -9.34848        13.00357
   H       -2.09293       -10.43378        11.05188
   H       -3.33289       -10.82506         8.97516
   H       -4.41955       -10.62883         6.64423
   H       -4.63432        -8.85084         4.64151
   H       -3.77224        -7.23787         4.86438
*
