# ORCA input file
# SCF done       -147.139821400714          0.000496274965
! CAM-B3LYP def2-SVP def2/J RIJCOSX Grid4 TightSCF
%maxcore 5000
%tddft
    Mode sTDDFT
    Ethresh 5.0
    maxcore 5000
end

%pal
  nprocs 6
  end
* xyz 0 1
   O      -10.74233         7.76618         3.01949
   C       -9.80331         7.66966         3.99340
   N       -9.76700         8.70977         4.77699
   C      -10.73506         9.55199         4.30469
   C      -11.32621         8.95008         3.21726
   C      -11.01702        10.84189         4.91921
   O      -11.85783        11.61519         4.53840
   C       -8.97449         6.51926         4.10033
   S       -7.75585         6.45072         5.38340
   C       -7.33563         4.90001         4.78796
   C       -8.13524         4.56361         3.68558
   N       -9.03102         5.47339         3.32536
   C       -7.78203         3.20798         3.16230
   C       -6.68662         2.81313         4.10843
   C       -6.45203         3.82695         5.04036
   S       -5.20823         3.42489         6.15215
   C       -4.99544         1.87074         5.36741
   C       -5.86335         1.71030         4.29769
   C       -4.04482         0.92096         5.82436
   C       -3.18823         1.13943         6.85061
   C       -2.23098         0.24000         7.38860
   S       -1.00598         0.91266         8.42864
   C       -0.27591        -0.64652         8.67396
   C       -0.97411        -1.62765         7.97987
   C       -2.07471        -1.13573         7.26586
   C       -3.00227        -2.03595         6.51256
   C       -2.85436        -3.48892         6.97014
   C       -3.48054        -3.69074         8.34557
   O       -3.96598        -2.78743         8.97511
   C       -3.46072        -5.11157         8.85393
   C       -1.37179        -3.87638         6.96792
   C       -0.60929        -3.07940         8.02341
   C        0.86758        -0.82110         9.48695
   C        1.51015         0.17573        10.14627
   C        2.65206        -0.05176        10.94532
   S        3.44307         1.32281        11.76898
   C        4.57667         0.20236        12.39874
   C        4.28055        -1.09175        11.95290
   N        3.22425        -1.20800        11.15827
   C        5.26282        -2.08064        12.49718
   C        6.15535        -1.18497        13.30576
   C        5.72135         0.14289        13.22307
   S        6.70825         1.21043        14.12667
   C        7.72359        -0.13036        14.63061
   C        7.28317        -1.33422        14.09975
   C        8.82864         0.13707        15.47825
   C        9.69688        -0.78317        15.95334
   C       10.78564        -0.42288        16.80069
   N       11.11167         0.76600        17.22328
   C       12.22261         0.58825        18.00174
   C       12.52654        -0.75352        18.01278
   O       11.62758        -1.39368        17.25976
   C       12.90018         1.69287        18.66305
   O       13.87684         1.58435        19.36037
   H      -12.11490         9.25843         2.56205
   H      -10.37070        11.05070         5.78942
   H       -7.44004         3.25035         2.12671
   H       -8.63186         2.52452         3.20332
   H       -5.88019         0.81956         3.69576
   H       -4.02985        -0.00615         5.27347
   H       -3.20102         2.11893         7.31466
   H       -2.78960        -1.97479         5.44049
   H       -4.03074        -1.70881         6.68073
   H       -3.39537        -4.13923         6.27308
   H       -3.62316        -5.82348         8.04980
   H       -4.22017        -5.23461         9.62177
   H       -2.49089        -5.31667         9.30399
   H       -0.96171        -3.65583         5.97982
   H       -1.24967        -4.94486         7.14912
   H        0.46580        -3.19899         7.86981
   H       -0.84052        -3.46320         9.02248
   H        1.25365        -1.82513         9.58935
   H        1.15790         1.19529        10.07545
   H        5.80315        -2.59395        11.69978
   H        4.77295        -2.83984        13.10955
   H        7.77370        -2.27066        14.29194
   H        8.98586         1.16780        15.76433
   H        9.61357        -1.83287        15.71873
   H       13.30342        -1.31500        18.48926
   H       12.42354         2.66870        18.46292
*
