# ORCA input file
# SCF done       -128.358229584677          0.000497938685
! CAM-B3LYP def2-SVP def2/J RIJCOSX Grid4 TightSCF
%maxcore 5000
%tddft
    Mode sTDDFT
    Ethresh 5.0
    maxcore 5000
end

%pal
  nprocs 6
  end
* xyz 0 1
   O       -3.76442         0.14425         5.87641
   C       -3.94307         0.40756         4.55433
   N       -4.12694        -0.66496         3.84007
   C       -4.06890        -1.70578         4.72879
   C       -3.84452        -1.18583         5.98145
   C       -4.22961        -3.09265         4.31733
   O       -4.18827        -4.04008         5.05946
   C       -3.92121         1.74809         4.07429
   S       -3.65968         3.08218         5.14861
   C       -3.79405         4.20210         3.81963
   C       -4.02663         3.54415         2.62742
   C       -4.09728         2.16000         2.77140
   C       -3.67967         5.56738         4.01864
   C       -3.58499         6.76304         4.21576
   C       -3.49541         8.13218         4.41866
   C       -3.69062         9.03220         3.42355
   C       -3.62670        10.43373         3.61702
   S       -3.93017        11.55523         2.30066
   C       -3.71033        12.98366         3.28267
   C       -3.40360        12.59137         4.58701
   C       -3.36355        11.17717         4.74998
   O       -3.06903        10.85200         6.02668
   C       -2.92154        12.04224         6.67553
   N       -2.60595        12.00736         8.04817
   O       -2.48013        13.08490         8.60526
   O       -2.48235        10.92097         8.57770
   C       -3.11118        13.13013         5.86129
   C       -3.85989        14.27490         2.74930
   S       -3.66020        15.69625         3.74084
   C       -4.02545        16.73340         2.38319
   C       -4.27800        15.98752         1.24040
   C       -4.18487        14.62074         1.44467
   C       -4.05296        18.10261         2.51300
   C       -4.08284        19.31477         2.64571
   C       -4.13299        20.68579         2.77240
   C       -4.47864        21.51869         1.74509
   C       -4.54633        22.91281         1.86848
   C       -4.90658        23.76540         0.85416
   C       -5.00083        25.17824         0.92608
   C       -5.38855        25.77500        -0.23216
   C       -5.62408        24.86875        -1.29515
   S       -5.33272        23.22420        -0.76134
   C       -6.02236        25.15867        -2.57922
   C       -6.29292        26.44339        -3.12949
   C       -6.66684        26.42578        -4.42765
   C       -6.72185        25.11582        -5.01118
   S       -6.26657        23.91692        -3.78943
   C       -7.05416        24.78986        -6.26749
   H       -3.73368        -1.63944         6.94459
   H       -4.39818        -3.19937         3.23136
   H       -4.13859         4.06532         1.69383
   H       -4.27095         1.46320         1.97270
   H       -3.26764         8.46331         5.42310
   H       -3.91833         8.69115         2.42324
   H       -3.04401        14.15586         6.15974
   H       -4.52233        16.44851         0.30034
   H       -4.34789        13.87863         0.68305
   H       -3.88811        21.09624         3.74440
   H       -4.72063        21.08794         0.78150
   H       -4.30491        23.35689         2.82594
   H       -4.77841        25.70551         1.83726
   H       -5.51167        26.83618        -0.35373
   H       -6.19961        27.33660        -2.53767
   H       -6.91099        27.29609        -5.01048
   H       -7.32389        25.55032        -6.97885
   H       -7.06191        23.76940        -6.60391
*
