# ORCA input file
# SCF done       -165.284631308317          0.000486278173
! CAM-B3LYP def2-SVP def2/J RIJCOSX Grid4 TightSCF
%maxcore 5000
%tddft
    Mode sTDDFT
    Ethresh 5.0
    maxcore 5000
end

%pal
  nprocs 6
  end
* xyz 0 1
   C        3.68895       -10.25313         2.10939
   S        3.82100       -11.91414         1.73263
   C        2.19232       -11.99524         1.13214
   C        1.57271       -10.74182         1.23241
   C        2.45276        -9.74760         1.78555
   C        2.00791        -8.39899         1.91874
   C        2.87731        -7.43975         2.47592
   N        3.58971        -6.66563         2.93400
   C        0.74417        -8.05374         1.49381
   C       -0.12040        -9.01761         0.96633
   C        0.26492       -10.34411         0.84860
   C       -0.71429       -11.23044         0.36121
   N       -1.58705       -11.86966        -0.02867
   C        1.66228       -13.16602         0.54498
   C        2.34590       -14.32048         0.33069
   C        1.86618       -15.43337        -0.41780
   C        0.92476       -15.36420        -1.41458
   O        0.41403       -16.48032        -2.04282
   C        0.97701       -17.66496        -1.66840
   C        2.02297       -17.73292        -0.70071
   C        2.46069       -18.99936        -0.49360
   S        1.60173       -20.12980        -1.47452
   C        0.64335       -18.87851        -2.17230
   O        2.49187       -16.62711        -0.06428
   C        0.43985       -14.12563        -1.93955
   C       -0.73731       -13.98320        -2.57843
   N       -1.22863       -12.80798        -3.06559
   C       -0.62936       -11.55922        -2.97279
   C        0.67550       -11.24093        -3.20382
   S        0.96883        -9.55231        -3.04371
   C       -0.67927        -9.25315        -2.65689
   C       -1.41462       -10.39901        -2.65140
   N       -2.76484       -10.52166        -2.34613
   C       -3.64756        -9.48895        -2.48314
   C       -4.82986        -9.42592        -1.84489
   C       -5.84026        -8.43753        -2.06332
   S       -7.48431        -8.85891        -1.69700
   C       -8.09126        -7.34942        -2.32583
   C       -7.04724        -6.56449        -2.78613
   C       -5.78106        -7.16161        -2.58791
   C       -4.50960        -6.37415        -2.78760
   C       -3.51011        -6.69942        -1.79610
   N       -2.69648        -6.88220        -1.01244
   C       -4.83074        -4.87638        -2.66565
   C       -5.88137        -4.51299        -3.70030
   C       -7.22471        -5.21628        -3.43610
   O       -7.92137        -5.42817        -4.65874
   C       -8.29988        -4.25415        -5.33333
   C       -9.49699        -7.15144        -2.19766
   C      -10.27446        -6.27026        -2.86369
   C      -11.67780        -6.13466        -2.60253
   C      -12.53470        -5.36451        -3.33656
   O      -13.87780        -5.22676        -3.02237
   C      -14.30231        -5.93639        -1.94308
   C      -13.41543        -6.75664        -1.18684
   C      -14.02960        -7.38347        -0.15446
   S      -15.70692        -6.98218        -0.08705
   C      -15.57198        -5.95729        -1.46900
   O      -12.09512        -6.86451        -1.49742
   C      -12.16395        -4.62636        -4.52098
   C      -13.00516        -3.84065        -5.19275
   H        4.51954        -9.72798         2.53637
   H        0.40912        -7.03102         1.57434
   H       -1.10870        -8.72061         0.64845
   H        0.62910       -13.10179         0.24268
   H        3.32148       -14.45755         0.77932
   H        3.22997       -19.33089         0.17132
   H       -0.10095       -19.10581        -2.90615
   H        1.06617       -13.26535        -1.77530
   H       -1.39448       -14.83064        -2.70696
   H       -2.22356       -12.77145        -3.23675
   H        1.47713       -11.88466        -3.50081
   H       -1.00224        -8.26014        -2.41720
   H       -2.97660       -11.21832        -1.63787
   H       -3.34861        -8.75928        -3.21963
   H       -5.09513       -10.22061        -1.16030
   H       -4.08221        -6.56918        -3.78185
   H       -3.92473        -4.28814        -2.82607
   H       -5.20264        -4.66512        -1.66022
   H       -5.53024        -4.82274        -4.68867
   H       -6.02882        -3.43184        -3.71348
   H       -7.85032        -4.58607        -2.77563
   H       -7.44013        -3.72368        -5.75552
   H       -8.84491        -3.56843        -4.67144
   H       -8.95025        -4.57029        -6.14808
   H       -9.97487        -7.81639        -1.48935
   H       -9.85306        -5.66206        -3.63962
   H      -13.60047        -8.04970         0.56379
   H      -16.42698        -5.43627        -1.84563
   H      -11.15118        -4.75391        -4.86444
   H      -14.02378        -3.70491        -4.87523
   H      -12.69336        -3.31654        -6.07861
*
