# ORCA input file
# SCF done       -193.546835885862          0.000497181136
! CAM-B3LYP def2-SVP def2/J RIJCOSX Grid4 TightSCF
%maxcore 5000
%tddft
    Mode sTDDFT
    Ethresh 5.0
    maxcore 5000
end

%pal
  nprocs 6
  end
* xyz 0 1
   C       -0.37774       -17.94177         0.33844
   O        0.12702       -16.95595         1.12688
   C       -0.94466       -16.32790         1.64301
   C       -1.30680       -15.25971         2.49741
   C       -0.40486       -14.27466         3.13843
   O       -0.77087       -13.23340         3.63399
   N        0.89664       -14.64790         3.08995
   C       -2.70106       -15.29436         2.48891
   O       -3.18895       -16.28970         1.69599
   C       -2.11935       -16.91446         1.18309
   C       -1.74295       -17.97269         0.32748
   C       -3.65891       -14.48689         3.17888
   O       -3.30526       -13.73864         4.22290
   C       -4.39350       -13.08261         4.67511
   C       -5.49147       -13.42496         3.90480
   C       -5.02232       -14.33340         2.94242
   C       -5.83156       -14.98162         1.87609
   F       -5.30128       -14.83101         0.65059
   F       -5.98400       -16.30488         2.06218
   F       -7.07067       -14.46951         1.81565
   C       -4.23676       -12.22604         5.80555
   C       -5.23959       -11.48889         6.32617
   C       -5.17660       -10.63727         7.46794
   O       -6.26477        -9.88037         7.71648
   C       -6.05026        -9.15837         8.83895
   C       -4.79721        -9.45198         9.34005
   C       -4.23356       -10.39650         8.46473
   C       -2.88856       -11.00431         8.63588
   F       -2.91942       -12.35004         8.66369
   F       -2.03040       -10.67101         7.65367
   F       -2.31163       -10.61791         9.78204
   C       -7.03387        -8.25197         9.33284
   C       -8.21651        -8.05547         8.70755
   C       -9.28100        -7.17963         9.06597
   S      -10.78717        -7.41171         8.22700
   C      -11.54458        -6.11314         9.10033
   C      -10.64543        -5.51749         9.97473
   C       -9.37479        -6.11817         9.95637
   C       -8.26025        -5.65917        10.85844
   C       -8.12316        -6.63609        11.92017
   N       -8.04131        -7.39665        12.76954
   C       -8.54964        -4.28581        11.48123
   C       -9.98440        -4.22691        11.99031
   C      -10.93515        -4.28517        10.79359
   O      -10.69816        -3.10121        10.04118
   C      -11.67902        -2.75826         9.10007
   C      -12.91546        -5.80176         8.90390
   C      -13.69210        -6.34149         7.93681
   C      -15.07018        -6.02688         7.77434
   S      -15.89305        -5.02912         8.93420
   C      -17.41640        -5.18826         8.12104
   C      -17.28370        -5.99696         7.00958
   C      -15.95248        -6.43649         6.78734
   C      -15.52299        -7.21193         5.57730
   F      -14.24522        -6.96134         5.23548
   F      -15.60072        -8.54178         5.75304
   F      -16.23817        -6.91070         4.48900
   C      -18.44195        -6.41929         6.15250
   F      -19.60500        -6.43469         6.82757
   F      -18.63803        -5.60292         5.10340
   F      -18.30100        -7.65960         5.67422
   C      -18.57470        -4.49008         8.61416
   C      -18.59909        -3.82385         9.76602
   H        0.33805       -18.56013        -0.16517
   H        1.20023       -15.48414         2.62391
   H        1.58579       -14.01754         3.46371
   H       -2.37089       -18.64955        -0.21111
   H       -6.49856       -13.07804         4.00525
   H       -3.23614       -12.20834         6.20586
   H       -6.21399       -11.50452         5.85840
   H       -4.34332        -9.04876        10.22165
   H       -6.76889        -7.76570        10.25637
   H       -8.40836        -8.64756         7.82135
   H       -7.31802        -5.62232        10.29840
   H       -8.41957        -3.51141        10.72474
   H       -7.84702        -4.10273        12.29597
   H      -10.15114        -3.29060        12.52227
   H      -10.18908        -5.05997        12.66535
   H      -11.98067        -4.29611        11.14030
   H      -11.36985        -1.80069         8.68487
   H      -12.66362        -2.64653         9.57103
   H      -11.75169        -3.49394         8.29088
   H      -13.35257        -5.08415         9.58603
   H      -13.25668        -7.05115         7.24961
   H      -19.45357        -4.51496         7.98845
   H      -17.74043        -3.78220        10.41647
   H      -19.48197        -3.30432        10.09094
*
