# ORCA input file
# SCF done       -164.926846490342          0.000767277375
! CAM-B3LYP def2-SVP def2/J RIJCOSX Grid4 TightSCF
%maxcore 5000
%tddft
    Mode sTDDFT
    Ethresh 5.0
    maxcore 5000
end

%pal
  nprocs 6
  end
* xyz 0 1
   C        2.37927         7.42522        -0.91347
   S        1.95811         5.82090        -0.42533
   C        0.29713         6.20419        -0.55357
   C        0.09719         7.51769        -0.95670
   C        1.29557         8.21774        -1.16279
   C       -1.35807         7.73658        -1.02957
   O       -1.96938         8.73135        -1.32901
   C       -1.96305         6.40155        -0.62473
   C       -0.95019         5.52711        -0.35218
   C       -3.37157         6.24301        -0.58510
   C       -4.01985         5.11588        -0.20623
   C       -5.43770         4.93217        -0.17545
   C       -6.39131         5.88377        -0.53489
   C       -7.75830         5.62509        -0.54464
   C       -8.29358         4.39244        -0.18820
   C       -7.36352         3.42744         0.24911
   C       -5.96356         3.68589         0.24033
   N       -5.35604         2.56638         0.65982
   N       -6.32932         1.73275         0.88380
   C       -6.09117         0.41203         1.39046
   C       -6.31683         0.37384         2.89870
   N       -7.53985         2.16508         0.66285
   C       -9.69245         4.06032        -0.27150
   S      -10.37340         2.99484         0.90733
   C      -11.95142         3.21533         0.23227
   C      -13.12757         2.51274         0.81053
   F      -13.30784         2.78285         2.11492
   F      -14.26460         2.85063         0.18786
   F      -13.02682         1.17322         0.72169
   C      -11.94948         4.04358        -0.84704
   C      -10.65175         4.51390        -1.17207
   C      -10.40239         5.31099        -2.34394
   S      -11.52402         6.50703        -2.84927
   C      -10.55925         6.99734        -4.21379
   C       -9.36451         6.24811        -4.25326
   C       -9.30767         5.26043        -3.21761
   C       -8.23313         4.35199        -3.16535
   C       -7.17482         4.50899        -4.01305
   C       -5.97818         3.60658        -3.90942
   F       -6.12626         2.66899        -2.95841
   F       -5.71714         2.94845        -5.04808
   F       -4.86313         4.28561        -3.58914
   C       -7.17048         5.55494        -4.97736
   C       -6.05234         5.73815        -5.82600
   N       -5.15954         5.90764        -6.52270
   C       -8.26169         6.38655        -5.11161
   C      -11.10928         8.00072        -5.03198
   C      -10.66367         8.46522        -6.23630
   C      -11.36338         9.47625        -6.92435
   C      -12.50734        10.17880        -6.60706
   C      -12.76752        11.09452        -7.68431
   C      -11.70833        10.89675        -8.66923
   O      -11.48154        11.40609        -9.72429
   O      -10.89469         9.89941        -8.13756
   C      -13.89226        11.77649        -7.35854
   O      -14.37110        11.37262        -6.16448
   C      -13.55398        10.36893        -5.63417
   O      -13.78261         9.84621        -4.57414
   H        3.41666         7.68505        -0.98681
   H        1.36199         9.24316        -1.47659
   H       -1.04418         4.50247        -0.04343
   H       -3.92406         7.12217        -0.88963
   H       -3.44996         4.24977         0.09939
   H       -6.06364         6.86729        -0.83206
   H       -8.43128         6.41876        -0.83321
   H       -5.06060         0.15257         1.14410
   H       -6.78197        -0.26789         0.88781
   H       -5.63119         1.05168         3.40132
   H       -6.14908        -0.63263         3.27036
   H       -7.33742         0.66832         3.13012
   H      -12.82947         4.29045        -1.41389
   H       -8.25161         3.53802        -2.46083
   H       -8.23539         7.15885        -5.86125
   H      -12.02829         8.43429        -4.65285
   H       -9.78928         8.07976        -6.73349
   H      -14.43971        12.54839        -7.86545
*
