# ORCA input file
# SCF done       -195.966621655929          0.000617450638
! CAM-B3LYP def2-SVP def2/J RIJCOSX Grid4 TightSCF
%maxcore 5000
%tddft
    Mode sTDDFT
    Ethresh 5.0
    maxcore 5000
end

%pal
  nprocs 6
  end
* xyz 0 1
   C        3.98511        -5.07608        -7.98759
   C        2.77360        -5.71245        -8.00407
   C        2.12146        -6.02788        -6.80220
   C        2.68959        -5.70467        -5.60008
   C        3.93795        -5.05180        -5.54571
   C        4.53453        -4.72652        -4.30698
   C        5.75000        -4.09542        -4.29244
   C        6.39437        -3.74835        -5.51827
   C        5.84215        -4.05942        -6.72891
   C        4.59816        -4.72713        -6.76776
   C        7.64556        -3.03359        -5.23075
   O        8.49018        -2.64018        -5.99728
   C        7.63278        -2.81934        -3.74352
   C        6.59653        -3.67848        -3.18435
   C        6.56412        -4.19401        -1.91868
   C        7.53359        -3.91689        -0.93278
   N        8.32242        -3.74858        -0.11600
   C        5.60374        -5.13447        -1.48501
   N        4.84898        -5.90241        -1.09083
   C        8.40638        -1.86061        -3.19922
   C        8.27655        -1.30141        -1.87406
   C        7.06906        -1.08950        -1.29737
   C        6.87370        -0.55459         0.00771
   C        5.58368        -0.37059         0.49960
   C        5.34784         0.17691         1.77037
   N        5.17244         0.65028         2.80235
   C        4.45952        -0.73316        -0.25696
   N        3.56087        -1.04750        -0.90115
   C        7.99422        -0.24900         0.82786
   C        9.29988        -0.38428         0.47510
   S        9.79977        -0.87208        -1.13104
   C       10.37866        -0.11548         1.39965
   C       10.24109        -0.25450         2.79866
   C       11.31611         0.07050         3.70613
   N       11.06184         0.11036         5.02572
   C        9.90598        -0.28602         5.48489
   C        8.92761        -0.84413         4.58981
   N        9.10525        -0.76959         3.29942
   C        7.75894        -1.46737         5.09807
   N        6.83252        -1.96976         5.54408
   C        9.62761        -0.15221         6.86925
   N        9.37165        -0.04537         7.97955
   C       12.60347         0.42600         3.24654
   C       12.74140         0.54467         1.85520
   C       11.65141         0.26822         0.94932
   N       12.02028         0.43571        -0.32453
   S       13.55424         0.88679        -0.37703
   N       13.84809         0.89978         1.19478
   C       13.70454         0.68287         4.14854
   C       13.79693         0.08264         5.36471
   C       14.79383         0.33928         6.34710
   C       14.75661        -0.34912         7.55691
   C       15.68733        -0.11440         8.58142
   N       16.44124         0.08416         9.42496
   C       13.78540        -1.33020         7.81466
   N       12.99137        -2.13853         8.00496
   C       15.81486         1.30349         6.10538
   C       15.98903         1.96449         4.93543
   S       14.91918         1.79277         3.55257
   C       17.02930         2.93757         4.71615
   C       18.29642         2.87364         5.18720
   C       19.31316         3.90983         5.04335
   C       19.08575         5.21913         4.71731
   C       20.10018         6.19697         4.62366
   N       20.87872         7.03386         4.52400
   C       17.81770         5.78039         4.45272
   N       16.82005         6.30483         4.23495
   C       20.59773         3.32521         5.39460
   C       20.39037         1.97599         5.80383
   C       21.42290         1.17559         6.20411
   C       22.73431         1.69875         6.21562
   C       23.83697         0.92433         6.62716
   C       25.09998         1.45166         6.62690
   C       25.31560         2.77603         6.21614
   C       24.26635         3.55559         5.81134
   C       22.95197         3.04541         5.79987
   C       21.86484         3.84877         5.38862
   C       18.96254         1.64210         5.72612
   O       18.45017         0.57390         5.97000
   H        4.49064        -4.82984        -8.90975
   H        2.31042        -5.97511        -8.94320
   H        1.16583        -6.52894        -6.83392
   H        2.19334        -5.94752        -4.67233
   H        4.00960        -4.96899        -3.39622
   H        6.34788        -3.79678        -7.64616
   H        9.18075        -1.44290        -3.83378
   H        6.18047        -1.32957        -1.86810
   H        7.77385         0.10776         1.82364
   H       13.04182        -0.64421         5.62772
   H       16.48719         1.51765         6.92386
   H       16.74497         3.76733         4.08018
   H       21.23713         0.15797         6.51380
   H       23.66470        -0.09397         6.94294
   H       25.93978         0.85159         6.94323
   H       26.31823         3.17615         6.22297
   H       24.42721         4.57615         5.49662
   H       22.06254         4.86122         5.07412
*
