# ORCA input file
# SCF done       -208.163085130273          0.000435780420
! CAM-B3LYP def2-SVP def2/J RIJCOSX Grid4 TightSCF
%maxcore 5000
%tddft
    Mode sTDDFT
    Ethresh 5.0
    maxcore 5000
end

%pal
  nprocs 6
  end
* xyz 0 1
   C       -0.43323         2.47597         4.64784
   C        0.21768         1.41535         4.07365
   C        1.48484         0.94965         4.48416
   N        2.51037         0.52077         4.77051
   C       -0.25435         0.65538         2.98268
   N       -0.56033        -0.00111         2.09132
   C        0.08666         3.29997         5.73322
   C       -0.82382         4.36016         5.97685
   C       -0.61349         5.31234         6.94513
   C        0.54903         5.21262         7.71514
   C        1.45151         4.14994         7.46798
   C        1.24019         3.18907         6.48556
   S        2.81341         4.22029         8.54010
   C        2.17776         5.64087         9.29409
   C        1.00050         6.05070         8.77306
   C       -1.96212         4.23661         5.05732
   O       -2.91602         4.99314         4.97681
   C       -1.72781         3.01819         4.27208
   C       -2.62101         2.44673         3.40541
   C       -3.89311         2.88085         2.99639
   C       -4.70496         2.09864         2.16686
   C       -5.91408         2.70506         1.88515
   C       -6.02541         3.98228         2.48642
   S       -4.66513         4.40922         3.41708
   C       -7.29325         4.51775         2.14525
   C       -7.97862         3.58397         1.34432
   C       -7.13622         2.41719         1.15105
   C       -7.44376         1.29480         0.43918
   C       -6.55111         0.20870         0.31911
   N       -5.83281        -0.67931         0.22133
   C       -8.68317         1.14485        -0.21832
   N       -9.69096         1.01917        -0.75139
   C       -9.24576         4.01639         0.96945
   C       -9.52993         5.27608         1.46937
   S       -8.20558         5.93249         2.41626
   C      -10.75493         5.98435         1.26704
   C      -10.99073         7.29167         1.67734
   F      -10.01544         7.96904         2.31162
   C      -12.19797         7.96705         1.46376
   F      -12.27412         9.23643         1.90615
   C      -13.30111         7.39956         0.83544
   C      -13.09403         6.06274         0.40994
   C      -11.85846         5.38143         0.61169
   N      -11.99620         4.15484         0.08884
   N      -13.21020         4.12847        -0.37847
   N      -13.91328         5.21353        -0.22608
   C      -13.74033         2.96343        -1.01523
   C      -14.54562         8.06911         0.62105
   C      -15.68640         7.48843         0.09101
   C      -16.73568         8.39618         0.00008
   C      -16.38875         9.68183         0.45650
   S      -14.77912         9.76321         1.01255
   C      -17.51775        10.52523         0.31069
   C      -18.57909         9.77189        -0.23253
   C      -18.12071         8.40878        -0.44241
   C      -18.82901         7.36069        -0.95212
   C      -18.25966         6.07979        -1.11624
   N      -17.80218         5.03759        -1.25597
   C      -20.17421         7.48865        -1.35903
   N      -21.26494         7.58745        -1.69771
   C      -19.72745        10.52853        -0.43311
   C      -19.57105        11.84628        -0.02624
   S      -17.94305        12.14946         0.57938
   C      -20.53746        12.86414        -0.19119
   C      -20.58064        14.13008         0.30316
   C      -19.86203        14.80261         1.36444
   C      -19.44797        14.23358         2.54099
   C      -18.84769        14.95495         3.59199
   N      -18.34043        15.49949         4.46577
   C      -19.68038        12.88037         2.85974
   N      -19.89691        11.79311         3.15826
   C      -19.93698        16.23354         1.09685
   C      -20.89041        16.45106         0.06774
   C      -21.40536        15.15280        -0.40380
   O      -22.26581        14.94296        -1.22679
   C      -21.21685        17.70988        -0.37621
   C      -20.56537        18.79892         0.21093
   C      -19.60512        18.56864         1.22621
   C      -19.28125        17.29675         1.68469
   S      -18.92108        20.05847         1.79344
   C      -19.90912        20.95890         0.69578
   C      -20.71469        20.18722        -0.06590
   H       -1.32573         6.10708         7.10413
   H        1.95675         2.39826         6.33979
   H        2.73407         6.08842        10.09465
   H        0.45803         6.91331         9.11531
   H       -2.34119         1.49575         2.96787
   H       -4.39564         1.13282         1.80789
   H       -9.94829         3.46918         0.36965
   H      -12.92356         2.26161        -1.16906
   H      -14.19554         3.24269        -1.96456
   H      -14.50704         2.51164        -0.38441
   H      -15.71551         6.45611        -0.20374
   H      -20.65173        10.15595        -0.83663
   H      -21.32443        12.62873        -0.90269
   H      -21.95280        17.84970        -1.15266
   H      -18.53975        17.16487         2.45564
   H      -19.82298        22.02809         0.68832
   H      -21.39615        20.57163        -0.80300
*
