# ORCA input file
# SCF done       -225.576063452829          0.000767689750
! CAM-B3LYP def2-SVP def2/J RIJCOSX Grid4 TightSCF
%maxcore 5000
%tddft
    Mode sTDDFT
    Ethresh 5.0
    maxcore 5000
end

%pal
  nprocs 6
  end
* xyz 0 1
   C       17.10185         8.02957         9.85600
   C       17.22217         9.32185        10.28632
   F       18.42389         9.78020        10.67789
   C       16.13234        10.20206        10.33672
   C       14.90208         9.75511         9.94238
   C       14.72088         8.43205         9.48947
   C       15.84185         7.55182         9.44697
   C       15.68466         6.21848         9.00119
   C       14.44728         5.78542         8.60957
   C       13.33422         6.67473         8.63610
   C       13.45607         7.96383         9.06923
   C       12.14522         5.98055         8.11232
   O       11.01020         6.38980         8.03493
   C       12.64701         4.66172         7.62294
   C       13.99163         4.48364         8.12755
   C       14.63289         3.29464         8.36016
   C       14.07475         2.03445         8.07238
   N       13.64268         0.99053         7.86734
   C       15.88559         3.19262         9.00196
   N       16.89578         3.05552         9.52799
   C       11.85857         3.94731         6.77205
   C       12.22223         2.92229         5.87357
   C       13.48274         2.58532         5.39693
   C       13.43625         1.55657         4.46830
   C       12.12349         1.09946         4.21930
   S       10.96045         1.94685         5.12911
   C       12.18514         0.08071         3.24346
   C       13.53464        -0.11498         2.87417
   C       14.36628         0.77115         3.67564
   C       15.72657         0.80971         3.74728
   C       16.56028        -0.08383         3.03909
   N       17.25440        -0.82140         2.50364
   C       16.38237         1.72835         4.59576
   N       16.89499         2.48849         5.28439
   C       13.69256        -1.03374         1.84645
   C       12.46956        -1.55399         1.43327
   S       11.11635        -0.90792         2.35303
   C       12.26229        -2.43594         0.35722
   C       13.20458        -2.80378        -0.61530
   C       12.64219        -3.64021        -1.63716
   N       13.37228        -4.09794        -2.65265
   C       14.63337        -3.72497        -2.69480
   C       15.46397        -4.25986        -3.80325
   O       15.01357        -4.98582        -4.66395
   C       16.87869        -3.85027        -3.77159
   C       17.38391        -2.99774        -2.87413
   C       16.58306        -2.35701        -1.81496
   O       17.02360        -1.48328        -1.10191
   C       15.18234        -2.84466        -1.70933
   N       14.47780        -2.40878        -0.68787
   C       11.28097        -3.91131        -1.45452
   S       10.71408        -3.14375        -0.00739
   C       10.48356        -4.64075        -2.35078
   C        9.14868        -5.00753        -2.21607
   C        8.68721        -5.66642        -3.34624
   C        9.67501        -5.78634        -4.34877
   S       11.18300        -5.12964        -3.88650
   C        9.08270        -6.39501        -5.47833
   C        7.73420        -6.68967        -5.18859
   C        7.44592        -6.24999        -3.83494
   C        6.26374        -6.35079        -3.16328
   C        5.12173        -6.95311        -3.73342
   N        4.19566        -7.45340        -4.18724
   C        6.11024        -5.86651        -1.84669
   N        5.98812        -5.47531        -0.77597
   C        7.06301        -7.25971        -6.26588
   C        7.86329        -7.34359        -7.39320
   S        9.50695        -6.78906        -7.07816
   C        7.47293        -7.83580        -8.66423
   C        7.97669        -7.51432        -9.88443
   C        7.74736        -8.42291       -11.04612
   O        6.96815        -9.34521       -11.09538
   C        8.71123        -7.98458       -12.07253
   C        8.99067        -8.54721       -13.28494
   C        9.97393        -7.95603       -14.10925
   C       10.66127        -6.79270       -13.65371
   C       11.64342        -6.21126       -14.47882
   C       11.91218        -6.76965       -15.69754
   C       11.24620        -7.91152       -16.16432
   C       10.29219        -8.49063       -15.37479
   F       12.84679        -6.21428       -16.48829
   C       10.34939        -6.22889       -12.39496
   C        9.38172        -6.81033       -11.62139
   C        8.81897        -6.42317       -10.33191
   C        8.85214        -5.15724        -9.80842
   C        8.06064        -4.73780        -8.71951
   N        7.40571        -4.34378        -7.86263
   C        9.61031        -4.10184       -10.35594
   N       10.21717        -3.21235       -10.75260
   H       17.96197         7.37890         9.83305
   H       16.28817        11.21098        10.68435
   H       14.04781        10.41458         9.97173
   H       16.55087         5.57690         8.96583
   H       12.59890         8.62007         9.08714
   H       10.82404         4.27520         6.72991
   H       14.37546         3.11223         5.67919
   H       14.61915        -1.31556         1.37894
   H       17.49616        -4.28118        -4.54820
   H       18.42587        -2.70853        -2.89630
   H        8.57183        -4.78600        -1.33596
   H        6.02923        -7.55469        -6.26752
   H        6.70606        -8.60500        -8.66106
   H        8.46480        -9.43107       -13.61345
   H       12.17251        -5.32932       -14.15321
   H       11.50061        -8.30716       -17.13476
   H        9.76598        -9.37042       -15.71312
   H       10.88997        -5.35419       -12.06943
*
