# ORCA input file
# SCF done       -156.591492220738          0.000998114473
! CAM-B3LYP def2-SVP def2/J RIJCOSX Grid4 TightSCF
%maxcore 5000
%tddft
    Mode sTDDFT
    Ethresh 5.0
    maxcore 5000
end

%pal
  nprocs 6
  end
* xyz 0 1
   C        1.00555        -1.55320         1.71006
   C        0.06751        -1.26491         0.79226
   C       -0.92319        -0.31327         1.21074
   S       -0.60291         0.21070         2.85085
   C        0.86196        -0.85544         2.97485
   O        1.53299        -0.91067         3.96432
   C       -1.95260         0.08713         0.41128
   C       -2.98519         1.00333         0.69953
   C       -3.23173         1.76706         1.83417
   C       -4.37820         2.54146         1.70641
   C       -5.02319         2.37571         0.46098
   S       -4.20659         1.26916        -0.54593
   C       -6.17649         3.18554         0.43725
   C       -6.27480         3.87230         1.66754
   C       -5.12657         3.51444         2.48895
   C       -4.78967         4.02787         3.70468
   C       -5.51944         5.06774         4.32402
   N       -6.06339         5.94068         4.82873
   C       -3.64392         3.59886         4.41117
   N       -2.71836         3.25573         4.99357
   C       -7.41358         4.65992         1.76372
   C       -8.18148         4.59574         0.60487
   S       -7.47242         3.54350        -0.61566
   C       -9.40325         5.25036         0.37291
   C      -10.16680         5.97003         1.30511
   C      -11.37504         6.51184         0.74462
   N      -12.17917         7.29152         1.47054
   C      -11.85284         7.48324         2.72927
   C      -12.69406         8.42751         3.51106
   O      -13.56487         9.09786         3.00179
   C      -12.36130         8.51125         4.94456
   C      -11.35206         7.84315         5.51251
   C      -10.46120         6.92529         4.77906
   O       -9.60587         6.26750         5.32865
   C      -10.72087         6.83820         3.31787
   N       -9.88478         6.12032         2.60086
   C      -11.55570         6.17472        -0.60532
   S      -10.20715         5.23592        -1.16650
   C      -12.65455         6.50795        -1.41628
   C      -13.84927         7.07786        -0.98760
   C      -14.73768         7.25467        -2.03891
   C      -14.21521         6.84458        -3.28511
   S      -12.63819         6.20277        -3.14961
   C      -15.17652         7.09959        -4.28617
   C      -16.31759         7.66609        -3.67954
   C      -16.09099         7.74899        -2.24503
   C      -16.99150         8.12682        -1.29406
   C      -18.29051         8.55563        -1.64193
   N      -19.34230         8.90042        -1.94183
   C      -16.72718         8.04845         0.09143
   N      -16.55758         7.94729         1.22003
   C      -17.32904         7.96027        -4.58635
   C      -16.98746         7.62472        -5.88966
   S      -15.36029         6.94122        -5.97352
   C      -17.68243         7.75660        -7.11314
   C      -18.98681         8.07959        -7.34260
   S      -19.54794         8.25576        -9.00206
   C      -21.22921         8.65203        -8.46460
   O      -22.11409         8.90104        -9.23247
   C      -21.24775         8.59273        -7.01336
   C      -20.07301         8.29448        -6.43142
   H        1.82486        -2.23829         1.58349
   H        0.02597        -1.69337        -0.19484
   H       -1.99275        -0.35842        -0.57588
   H       -2.59730         1.74534         2.70035
   H       -7.71456         5.24909         2.61153
   H      -12.99517         9.17097         5.52164
   H      -11.13908         7.93664         6.56889
   H      -14.01526         7.34178         0.04149
   H      -18.25298         8.43329        -4.31630
   H      -17.08263         7.56514        -7.99452
   H      -22.17285         8.77907        -6.49668
   H      -19.95127         8.19169        -5.36878
*
