# ORCA input file
# SCF done       -205.466208141560          0.000785118101
! CAM-B3LYP def2-SVP def2/J RIJCOSX Grid4 TightSCF
%maxcore 5000
%tddft
    Mode sTDDFT
    Ethresh 5.0
    maxcore 5000
end

%pal
  nprocs 6
  end
* xyz 0 1
   C       -1.85885         2.45168        -2.91961
   C       -3.17464         2.86822        -3.07433
   C       -4.03208         2.98102        -1.98864
   C       -3.58782         2.69490        -0.70534
   C       -2.27766         2.28664        -0.54436
   C       -1.40995         2.14958        -1.64437
   C       -0.11792         1.65428        -1.17042
   C        0.79826         0.99634        -1.94725
   C        0.67439         0.83370        -3.34425
   N        0.62219         0.66320        -4.47735
   C        1.92003         0.31211        -1.43972
   N        2.82954        -0.28372        -1.07080
   C       -0.13823         1.73351         0.27605
   C       -1.55507         1.95299         0.69657
   O       -1.98242         1.90377         1.82608
   C        0.82926         1.71707         1.23198
   C        2.22601         1.87181         1.08366
   C        2.93622         2.44783         0.04012
   C        4.30726         2.42083         0.25888
   C        4.65304         1.81698         1.48637
   S        3.28803         1.31987         2.37320
   C        6.06101         1.79664         1.59242
   C        6.61441         2.39234         0.43840
   C        5.52545         2.76901        -0.45239
   C        5.61271         3.24881        -1.72498
   C        6.84168         3.44240        -2.39344
   N        7.82321         3.57484        -2.96927
   C        4.45157         3.52812        -2.47805
   N        3.49778         3.75427        -3.07296
   C        8.00221         2.43821         0.45935
   C        8.51511         1.85601         1.61399
   S        7.25495         1.25920         2.68587
   C        9.87366         1.71252         1.95043
   C       10.97565         2.28429         1.29757
   C       12.23476         1.90645         1.88174
   N       13.38913         2.29516         1.33570
   C       13.32012         3.08590         0.28828
   C       14.60121         3.44369        -0.37674
   O       15.65813         2.94125        -0.06605
   C       14.47891         4.42662        -1.46878
   C       13.31379         4.93182        -1.88638
   C       12.01007         4.58260        -1.29322
   O       10.97479         5.10850        -1.63625
   C       12.06809         3.56064        -0.21431
   N       10.92303         3.13799         0.27255
   C       12.09253         1.07371         3.00171
   S       10.41254         0.75025         3.28983
   C       13.11770         0.54595         3.80765
   C       14.46532         0.88941         3.77141
   C       15.19728         0.18268         4.71663
   C       14.41229        -0.72316         5.46253
   S       12.76497        -0.67518         5.02355
   C       15.24622        -1.40805         6.37317
   C       16.56532        -0.93412         6.21286
   C       16.57097         0.10221         5.19423
   C       17.62656         0.89025         4.84495
   C       18.89768         0.70594         5.43129
   N       19.92445         0.53886         5.91350
   C       17.52016         1.96274         3.93214
   N       17.44577         2.86022         3.22399
   C       17.45892        -1.52081         7.09949
   C       16.84158        -2.43813         7.93764
   S       15.12458        -2.59344         7.58848
   C       17.40765        -3.23885         8.95533
   C       18.57409        -3.06607         9.63308
   C       19.49849        -1.95867         9.77011
   C       19.19627        -0.62254         9.70980
   C       20.11912         0.40600         9.99581
   N       20.82578         1.28088        10.22310
   C       17.90720        -0.11368         9.46277
   N       16.86838         0.34745         9.29730
   C       20.75520        -2.50679        10.26802
   C       20.54328        -3.85463        10.66016
   C       19.15409        -4.23515        10.35966
   O       18.59276        -5.27969        10.59783
   C       21.53701        -4.62394        11.21669
   C       22.79748        -4.04239        11.38261
   C       23.00322        -2.70323        10.96884
   C       21.99741        -1.92108        10.41289
   S       24.63771        -2.20055        11.25732
   C       25.02307        -3.74997        11.92182
   C       23.98250        -4.61164        11.92782
   H       -1.20825         2.38205        -3.77632
   H       -3.53535         3.10809        -4.06314
   H       -5.05197         3.29839        -2.14475
   H       -4.23658         2.78343         0.15236
   H        0.46209         1.62470         2.24998
   H        2.46011         2.89819        -0.81172
   H        8.63979         2.86498        -0.29418
   H       15.41452         4.71429        -1.92914
   H       13.26858         5.64860        -2.69522
   H       14.84958         1.61262         3.07442
   H       18.51675        -1.33169         7.11914
   H       16.87090        -4.15057         9.20143
   H       21.34621        -5.64292        11.51560
   H       22.20089        -0.90929        10.10324
   H       26.02200        -3.92319        12.27229
   H       24.03564        -5.61803        12.30174
*
