# ORCA input file
# SCF done       -172.960063053899          0.000278059806
! CAM-B3LYP def2-SVP def2/J RIJCOSX Grid4 TightSCF
%maxcore 5000
%tddft
    Mode sTDDFT
    Ethresh 5.0
    maxcore 5000
end

%pal
  nprocs 6
  end
* xyz 0 1
   C       -5.00076       -11.19043         7.04311
   C       -3.89965       -10.63492         6.45231
   C       -3.88631       -10.33886         5.08282
   F       -2.74825        -9.79400         4.60139
   C       -4.94172       -10.56564         4.21157
   C       -6.09339       -11.14298         4.82019
   C       -6.11379       -11.45075         6.22794
   N       -7.27656       -11.98555         6.60457
   S       -8.23934       -12.09024         5.32848
   N       -7.24330       -11.46790         4.23274
   C       -4.90202       -10.26212         2.80847
   C       -5.92438       -10.46097         1.89793
   C       -5.55886       -10.07903         0.60962
   C       -4.24323        -9.58189         0.53792
   S       -3.46670        -9.58333         2.05331
   C       -3.95775        -9.24331        -0.80812
   C       -5.09932        -9.53143        -1.58819
   C       -6.14222       -10.05664        -0.71966
   C       -7.39973       -10.44393        -1.07946
   C       -8.33594       -10.93615        -0.14560
   N       -9.10702       -11.33625         0.60275
   C       -7.84871       -10.37477        -2.41520
   N       -8.21381       -10.31875        -3.50077
   C       -4.91353        -9.25674        -2.93596
   C       -3.63892        -8.76130        -3.18416
   S       -2.65931        -8.62433        -1.72886
   C       -3.06997        -8.40313        -4.41616
   C       -1.76964        -7.91675        -4.59233
   C       -1.44122        -7.67545        -5.96783
   N       -0.24259        -7.21777        -6.32500
   C        0.62135        -6.99393        -5.35648
   C        1.95458        -6.48009        -5.75210
   O        2.25883        -6.27184        -6.90898
   C        2.88492        -6.24066        -4.63682
   C        2.57886        -6.46454        -3.35425
   C        1.27467        -6.97684        -2.90165
   O        1.02507        -7.17180        -1.72952
   C        0.29322        -7.23417        -3.98216
   N       -0.88822        -7.69133        -3.62002
   C       -2.48781        -7.97574        -6.84563
   S       -3.87191        -8.54136        -5.95507
   C       -2.41605        -7.87120        -8.24391
   C       -3.39857        -8.15599        -9.18464
   C       -2.93288        -7.96895       -10.47934
   C       -1.58873        -7.54036       -10.51935
   S       -0.89868        -7.35435        -8.96787
   C       -1.20683        -7.41196       -11.87736
   C       -2.30035        -7.75468       -12.69383
   C       -3.42308        -8.10820       -11.84336
   C       -4.67143        -8.49143       -12.23702
   C       -5.03695        -8.59770       -13.59592
   N       -5.34816        -8.69121       -14.69543
   C       -5.68441        -8.80708       -11.30691
   N       -6.50906        -9.06206       -10.55214
   C       -2.00728        -7.67725       -14.05550
   C       -0.70428        -7.28284       -14.28455
   S        0.17296        -6.99512       -12.78615
   C       -0.04966        -7.11378       -15.55058
   C        1.27441        -6.72501       -15.64645
   C        1.90676        -6.57308       -16.88655
   F        3.19784        -6.19288       -16.87325
   C        1.29062        -6.78910       -18.08975
   C       -0.05401        -7.18340       -18.03658
   C       -0.73453        -7.34865       -16.77616
   N       -1.99940        -7.72666       -16.94843
   S       -2.30019        -7.85952       -18.52042
   N       -0.85202        -7.44805       -19.07232
   H       -5.03367       -11.42775         8.09275
   H       -3.01117       -10.40980         7.02090
   H       -6.87527       -10.86915         2.18615
   H       -5.64081        -9.40276        -3.71453
   H        3.85668        -5.86319        -4.92545
   H        3.29352        -6.27503        -2.56467
   H       -4.38554        -8.48406        -8.91141
   H       -2.68693        -7.89554       -14.85863
   H        1.85222        -6.53109       -14.75541
   H        1.80224        -6.66609       -19.02851
*
