# ORCA input file
# SCF done       -237.145838854745          0.000720258078
! CAM-B3LYP def2-SVP def2/J RIJCOSX Grid4 TightSCF
%maxcore 5000
%tddft
    Mode sTDDFT
    Ethresh 5.0
    maxcore 5000
end

%pal
  nprocs 6
  end
* xyz 0 1
   C        2.00964        -1.92411         4.32978
   C        3.11375        -0.94004         4.64889
   C        3.77421        -0.19936         3.67933
   C        4.76152         0.70256         4.04219
   C        5.09106         0.88379         5.37229
   C        4.41786         0.16598         6.34787
   C        3.43441        -0.73437         5.98930
   C        2.27787        -3.33745         4.81758
   C        3.50221        -3.72388         5.34922
   C        3.69906        -5.02951         5.76476
   C        2.68282        -5.96130         5.65313
   C        1.46236        -5.58374         5.11827
   C        1.26182        -4.28166         4.70257
   C        1.61070        -1.96299         2.87775
   C        0.32911        -1.55172         2.61530
   C       -0.42472        -1.11207         3.76057
   C       -1.70666        -0.62851         3.77278
   C       -2.50964        -0.44367         2.63145
   N       -3.21977        -0.25643         1.75031
   C       -2.31342        -0.25954         4.99116
   N       -2.80070         0.03290         5.98755
   S        0.49818        -1.27742         5.22381
   C       -0.27568        -1.66076         1.34622
   N       -0.75282        -1.82084         0.31618
   C        2.53076        -2.41985         1.88941
   C        2.54301        -2.08651         0.54221
   C        3.60308        -2.68050        -0.13397
   C        4.39545        -3.49677         0.69825
   S        3.86264        -3.49323         2.31577
   C        5.42103        -4.08431        -0.07871
   C        5.28860        -3.62205        -1.40634
   C        4.15047        -2.71702        -1.48014
   C        3.71410        -2.03065        -2.57332
   C        4.34381        -2.15940        -3.83030
   N        4.85955        -2.26851        -4.84798
   C        2.63268        -1.12365        -2.51748
   N        1.77649        -0.36363        -2.47345
   C        6.25848        -4.13943        -2.25359
   C        7.11431        -5.00332        -1.57969
   S        6.72200        -5.17388         0.12446
   C        8.19907        -5.72949        -2.09791
   C        8.95624        -6.66332        -1.38127
   C        9.98746        -7.27372        -2.16860
   N       10.80051        -8.19434        -1.65319
   C       10.61013        -8.51474        -0.39013
   C       11.51192        -9.54329         0.18550
   O       12.38909       -10.07760        -0.46036
   C       11.25989        -9.87156         1.59886
   C       10.29910        -9.30132         2.33365
   C        9.37656        -8.27503         1.81932
   O        8.51643        -7.76869         2.50910
   C        9.57974        -7.90507         0.39646
   N        8.77168        -6.99362        -0.10403
   C       10.03082        -6.79480        -3.48304
   S        8.78430        -5.60845        -3.73070
   C       10.95386        -7.20431        -4.45914
   C       11.11332        -6.71477        -5.75055
   C       12.14820        -7.35926        -6.41379
   C       12.76646        -8.35364        -5.62465
   S       12.09119        -8.48286        -4.06002
   C       13.79737        -8.94765        -6.38973
   C       13.84708        -8.32241        -7.65176
   C       12.79649        -7.31989        -7.71680
   C       12.46205        -6.53619        -8.77988
   C       13.11318        -6.63717       -10.02922
   N       13.61223        -6.73805       -11.05548
   C       11.41005        -5.59737        -8.70838
   N       10.55528        -4.83651        -8.64263
   C       14.86395        -8.81793        -8.46075
   C       15.57546        -9.83509        -7.84051
   S       14.96556       -10.17574        -6.22263
   C       16.65668       -10.58264        -8.39350
   C       17.50523       -10.11525        -9.36355
   C       18.51706       -11.04316        -9.79785
   C       19.46215       -10.84268       -10.76937
   C       19.57893        -9.67736       -11.55044
   N       19.72976        -8.76671       -12.23154
   C       20.40339       -11.85137       -11.06137
   N       21.16774       -12.67640       -11.28685
   S       18.43052       -12.53232        -8.90614
   C       16.94141       -11.98205        -7.91455
   C       15.85576       -12.98312        -8.24439
   C       16.09795       -14.32524        -7.95888
   C       15.15917       -15.29036        -8.26517
   C       13.96661       -14.93120        -8.87255
   C       13.72934       -13.60449        -9.17921
   C       14.66937       -12.63366        -8.87311
   C       17.33428       -11.94849        -6.44828
   C       18.43574       -11.18436        -6.07463
   C       18.82377       -11.11153        -4.75077
   C       18.11381       -11.79918        -3.78067
   C       17.01329       -12.55425        -4.14392
   C       16.62155       -12.63030        -5.46940
   C       17.49116        -8.78375        -9.82762
   N       17.48404        -7.67904       -10.13406
   H        3.52628        -0.30735         2.63426
   H        5.26694         1.26926         3.27474
   H        5.85933         1.58897         5.65001
   H        4.65403         0.31181         7.39083
   H        2.89804        -1.28161         6.75166
   H        4.30980        -3.01276         5.43030
   H        4.65533        -5.31534         6.17538
   H        2.84015        -6.97770         5.97980
   H        0.66260        -6.30241         5.02468
   H        0.30332        -3.99671         4.29159
   H        1.82943        -1.42071         0.09245
   H        6.35711        -3.92629        -3.30290
   H       11.91666       -10.62222         2.01737
   H       10.14872        -9.57223         3.37000
   H       10.50046        -5.92818        -6.15290
   H       15.06483        -8.48302        -9.46193
   H       17.03595       -14.60824        -7.50251
   H       15.36273       -16.32520        -8.03628
   H       13.23289       -15.68424        -9.11612
   H       12.81150       -13.31517        -9.66839
   H       14.46442       -11.60784        -9.13943
   H       19.00023       -10.64794        -6.82448
   H       19.68299       -10.51776        -4.47889
   H       18.41722       -11.74477        -2.74649
   H       16.45017       -13.08869        -3.39432
   H       15.75281       -13.21285        -5.73470
*
