# ORCA input file
# SCF done       -215.668184450206          0.000463595402
! CAM-B3LYP def2-SVP def2/J RIJCOSX Grid4 TightSCF
%maxcore 5000
%tddft
    Mode sTDDFT
    Ethresh 5.0
    maxcore 5000
end

%pal
  nprocs 6
  end
* xyz 0 1
   C       -5.82413         0.02293        -8.49823
   C       -6.15532        -0.20807        -9.80416
   F       -6.16822         0.80070       -10.68386
   C       -6.48680        -1.50644       -10.24165
   F       -6.80898        -1.70331       -11.52645
   C       -6.48041        -2.55670        -9.36689
   C       -6.14196        -2.35063        -8.01550
   C       -5.80906        -1.03819        -7.57091
   C       -5.46864        -0.80609        -6.21803
   C       -5.45920        -1.85441        -5.33607
   C       -5.78962        -3.16132        -5.79197
   C       -6.12425        -3.41755        -7.09041
   C       -5.70074        -4.10002        -4.66363
   O       -5.90995        -5.30110        -4.70626
   C       -5.31765        -3.30525        -3.49244
   C       -5.15440        -1.92283        -3.90769
   C       -4.77014        -0.85994        -3.13357
   C       -4.45065        -0.91046        -1.75979
   N       -4.16870        -0.86879        -0.64746
   C       -4.63027         0.45856        -3.61829
   N       -4.49714         1.54938        -3.94916
   C       -5.16449        -3.79128        -2.21838
   C       -5.28000        -5.10053        -1.72659
   C       -5.08717        -5.39740        -0.37016
   C       -5.22066        -6.74495        -0.09837
   C       -5.51716        -7.49463        -1.26176
   S       -5.64212        -6.54628        -2.66932
   C       -5.61768        -8.85513        -0.88778
   C       -5.38811        -8.97561         0.49567
   C       -5.13420        -7.65015         1.03961
   C       -4.87056        -7.32386         2.33603
   C       -4.80187        -8.29161         3.36188
   N       -4.74104        -9.06945         4.20135
   C       -4.64917        -5.99033         2.74423
   N       -4.47074        -4.91040         3.08382
   C       -5.45771       -10.29337         0.94750
   C       -5.73541       -11.17182        -0.08656
   S       -5.91888       -10.35986        -1.63254
   C       -5.86417       -12.58513        -0.03035
   C       -5.76562       -13.42925         1.06116
   F       -5.53334       -12.99768         2.30202
   C       -5.92843       -14.78606         0.74580
   F       -5.86201       -15.75482         1.66088
   C       -6.15687       -15.02500        -0.59750
   S       -6.17110       -13.51865        -1.46373
   C       -6.34402       -16.26263        -1.26859
   C       -6.34001       -17.53945        -0.73218
   C       -6.53095       -18.50994        -1.71530
   C       -6.68528       -17.96478        -3.00349
   S       -6.59721       -16.26172        -3.00590
   C       -6.86235       -19.02078        -3.92985
   C       -6.80928       -20.24067        -3.22572
   C       -6.62072       -19.95941        -1.81168
   C       -6.58471       -20.87364        -0.80138
   C       -6.71827       -22.25463        -1.06288
   N       -6.82026       -23.37260        -1.29569
   C       -6.41879       -20.50858         0.55197
   N       -6.27856       -20.22000         1.65206
   C       -6.98545       -21.34590        -4.04686
   C       -7.18780       -20.98808        -5.37329
   S       -7.11694       -19.24278        -5.59596
   C       -7.38169       -21.80730        -6.50494
   C       -7.71992       -23.12521        -6.57662
   C       -7.44838       -23.84974        -7.85274
   O       -7.16586       -23.34972        -8.91617
   C       -7.54243       -25.28185        -7.51351
   C       -7.25907       -26.36809        -8.29035
   C       -7.38130       -27.66039        -7.73284
   C       -7.78635       -27.80066        -6.37328
   C       -7.89113       -29.09243        -5.81960
   C       -7.61261       -30.19275        -6.58100
   C       -7.21649       -30.05289        -7.92670
   C       -7.10262       -28.81373        -8.49183
   F       -6.94999       -31.14873        -8.64898
   F       -7.71342       -31.41925        -6.05421
   C       -8.08308       -26.65730        -5.59617
   C       -7.97315       -25.41593        -6.16275
   C       -8.23989       -24.08310        -5.62428
   C       -9.06092       -23.82520        -4.55747
   C       -9.49857       -22.53657        -4.19681
   N       -9.89142       -21.50346        -3.88578
   C       -9.64423       -24.83112        -3.75733
   N      -10.14629       -25.61111        -3.08262
   H       -5.57330         1.02291        -8.18043
   H       -6.73612        -3.54447        -9.71715
   H       -5.22483         0.19937        -5.91638
   H       -6.37124        -4.41972        -7.40625
   H       -4.91286        -3.07366        -1.44683
   H       -4.85705        -4.63593         0.35409
   H       -5.31237       -10.60704         1.96492
   H       -6.20171       -17.73958         0.31451
   H       -6.92323       -22.36710        -3.71878
   H       -7.16943       -21.34664        -7.46565
   H       -6.94374       -26.24324        -9.31502
   H       -8.19668       -29.21745        -4.79258
   H       -6.79748       -28.72330        -9.52257
   H       -8.37760       -26.79090        -4.56751
*
