# ORCA input file
# SCF done       -210.064782337075          0.000615735089
! CAM-B3LYP def2-SVP def2/J RIJCOSX Grid4 TightSCF
%maxcore 5000
%tddft
    Mode sTDDFT
    Ethresh 5.0
    maxcore 5000
end

%pal
  nprocs 6
  end
* xyz 0 1
   C       -2.49438         2.65455         3.45180
   C       -1.95582         3.12372         4.61689
   F       -1.65874         4.42293         4.74583
   C       -1.70587         2.25047         5.69511
   F       -1.17602         2.73875         6.82394
   C       -1.99873         0.91937         5.59310
   C       -2.55408         0.40536         4.40520
   C       -2.80783         1.28713         3.31434
   C       -3.36701         0.79489         2.11307
   C       -3.66381        -0.53886         2.00629
   C       -3.40059        -1.41123         3.09743
   C       -2.86217        -0.96628         4.27037
   C       -3.78788        -2.78845         2.73796
   O       -3.67418        -3.76517         3.44555
   C       -4.26743        -2.71475         1.33459
   C       -4.24499        -1.32110         0.92016
   C       -4.75139        -0.80195        -0.24275
   C       -5.40834        -1.53412        -1.25487
   N       -5.97262        -2.05170        -2.11091
   C       -4.71595         0.56962        -0.57455
   N       -4.71146         1.66774        -0.90828
   C       -4.54025        -3.75763         0.49247
   C       -4.69785        -5.13303         0.75846
   C       -4.87513        -5.84351         1.93995
   C       -5.05612        -7.20052         1.71085
   C       -5.01066        -7.54398         0.34161
   S       -4.77219        -6.19217        -0.65741
   C       -5.18849        -8.94441         0.22076
   C       -5.35589        -9.48764         1.51118
   C       -5.28445        -8.41076         2.48702
   C       -5.42181        -8.51210         3.83886
   C       -5.63518        -9.75167         4.48176
   N       -5.80756       -10.75173         5.01429
   C       -5.38379        -7.39317         4.70056
   N       -5.37799        -6.50210         5.42101
   C       -5.55472       -10.86709         1.48914
   C       -5.53154       -11.35630         0.19751
   S       -5.26431       -10.12314        -1.00955
   C       -5.71422       -12.70797        -0.22976
   N       -5.61453       -12.96058        -1.54883
   C       -5.83979       -14.19150        -1.92086
   C       -6.21374       -15.17115        -0.97478
   N       -6.22133       -14.84351         0.32678
   N       -5.95879       -13.64232         0.69412
   C       -6.57871       -16.51063        -1.32131
   C       -6.98434       -17.49963        -0.44663
   C       -7.29631       -18.68322        -1.11449
   C       -7.11627       -18.58659        -2.50751
   S       -6.57070       -17.04654        -2.99170
   C       -7.46074       -19.82729        -3.10109
   C       -7.87157       -20.70516        -2.07877
   C       -7.76685       -20.02265        -0.79910
   C       -8.02611       -20.55652         0.42811
   C       -8.45637       -21.89414         0.56425
   N       -8.81136       -22.98091         0.65125
   C       -7.88356       -19.82182         1.62494
   N       -7.78040       -19.22670         2.59863
   C       -8.22025       -21.96210        -2.55378
   C       -8.06786       -22.06442        -3.92960
   S       -7.51728       -20.55145        -4.63919
   C       -8.33701       -23.16225        -4.77573
   C       -8.50860       -24.47401        -4.45301
   C       -9.20125       -25.35894        -5.43602
   O       -9.42708       -25.10545        -6.59561
   C       -9.59220       -26.55702        -4.66950
   C      -10.36352       -27.61324        -5.06141
   C      -10.64721       -28.63786        -4.13098
   C      -10.13200       -28.54226        -2.80511
   C      -10.43258       -29.56029        -1.87794
   C      -11.20349       -30.62549        -2.25071
   C      -11.70880       -30.72123        -3.56342
   C      -11.43739       -29.74895        -4.48482
   F      -12.46146       -31.77621        -3.90065
   F      -11.48775       -31.59215        -1.36961
   C       -9.32714       -27.44182        -2.43101
   C       -9.05280       -26.46897        -3.35434
   C       -8.24248       -25.25616        -3.26347
   C       -7.23865       -25.05677        -2.35234
   C       -6.31833       -23.99299        -2.41932
   N       -5.53921       -23.15046        -2.45562
   C       -6.95126       -25.94840        -1.29637
   N       -6.67647       -26.64374        -0.42650
   H       -2.68065         3.33691         2.63718
   H       -1.80201         0.26374         6.42684
   H       -3.54113         1.48730         1.30560
   H       -2.67668        -1.65267         5.08246
   H       -4.64377        -3.51276        -0.55851
   H       -4.86176        -5.37468         2.90670
   H       -5.70906       -11.50554         2.33962
   H       -5.72493       -14.42155        -2.97294
   H       -7.04169       -17.33083         0.61322
   H       -8.61208       -22.75746        -1.94698
   H       -8.49817       -22.92944        -5.82429
   H      -10.75445       -27.66502        -6.06613
   H      -10.05076       -29.50423        -0.87054
   H      -11.83238       -29.83647        -5.48485
   H       -8.95863       -27.38786        -1.41904
*
