# ORCA input file
# SCF done       -195.732179986824          0.000606031732
! CAM-B3LYP def2-SVP def2/J RIJCOSX Grid4 TightSCF
%maxcore 5000
%tddft
    Mode sTDDFT
    Ethresh 5.0
    maxcore 5000
end

%pal
  nprocs 6
  end
* xyz 0 1
   C       -5.16737        -2.66707         4.39280
   O       -5.41384        -3.63642         3.69975
   C       -5.88533        -2.26870         5.62130
   C       -5.30458        -1.09914         6.14278
   C       -5.82218        -0.53652         7.29739
   C       -6.90844        -1.15218         7.91051
   C       -7.47549        -2.31416         7.38477
   C       -6.96129        -2.88263         6.22655
  Br       -8.94987        -3.13071         8.23966
  Br       -7.61465        -0.38329         9.48670
   C       -4.19007        -0.70058         5.28102
   C       -3.38184         0.38582         5.49148
   C       -3.52628         1.27645         6.57717
   N       -3.59309         2.03314         7.43738
   C       -2.29500         0.77925         4.68090
   N       -1.39475         1.17353         4.08721
   C       -4.11711        -1.66338         4.20117
   C       -3.21713        -1.65023         3.16364
   C       -3.08905        -2.52575         2.08166
   C       -2.08712        -2.33358         1.11436
   O       -1.20362        -1.31586         1.17333
   C       -0.48439        -1.15225        -0.03712
   C       -0.00781        -2.50412        -0.58357
   C        0.94893        -3.19371         0.38634
   O       -1.13479        -3.33073        -0.86732
   C       -2.09337        -3.28175         0.08646
   C       -3.13159        -4.20427         0.23131
   S       -4.04384        -3.93466         1.68691
   C       -3.47922        -5.27182        -0.64299
   C       -3.21255        -5.25958        -2.02989
   C       -3.48432        -6.41206        -2.84978
   N       -3.18128        -6.37565        -4.14784
   C       -2.66933        -5.29743        -4.68933
   C       -2.49846        -4.12191        -3.88747
   N       -2.77498        -4.13465        -2.60917
   C       -2.03419        -2.91251        -4.46426
   N       -1.64108        -1.94557        -4.93497
   C       -2.34811        -5.33018        -6.06675
   N       -2.09760        -5.36578        -7.18407
   C       -4.06886        -7.60577        -2.35472
   C       -4.48514        -7.54935        -1.00602
   C       -4.18013        -6.40376        -0.17374
   N       -4.65089        -6.55467         1.06277
   S       -5.42594        -7.95231         1.16344
   N       -5.19504        -8.45703        -0.33764
   C       -4.17837        -8.72542        -3.21760
   C       -4.44277       -10.06306        -2.92214
   O       -4.59175       -10.56036        -1.67838
   C       -4.43399       -11.96794        -1.63278
   C       -5.22842       -12.65265        -2.75127
   C       -6.72435       -12.37549        -2.62405
   O       -4.73449       -12.21553        -4.01505
   C       -4.46958       -10.89446        -4.06337
   C       -4.14132       -10.22921        -5.23441
   S       -3.86895        -8.52911        -4.91728
   C       -4.05047       -10.77320        -6.53307
   C       -3.35359       -10.24115        -7.57627
   C       -3.70066       -10.57703        -8.98209
   O       -4.39310       -11.48776        -9.36871
   C       -3.06701        -9.50793        -9.78881
   C       -2.28646        -8.68413        -8.95511
   C       -2.31762        -9.22678        -7.60137
   C       -1.36028        -9.02298        -6.64496
   C       -1.27845        -9.78163        -5.45748
   N       -1.14436       -10.40342        -4.50158
   C       -0.30778        -8.09231        -6.75926
   N        0.56633        -7.34928        -6.78078
   C       -1.63488        -7.58043        -9.47633
   C       -1.76362        -7.32094       -10.83589
   C       -2.51986        -8.15452       -11.66364
   C       -3.18364        -9.25709       -11.14051
  Br       -2.66047        -7.78800       -13.51160
  Br       -0.89381        -5.80991       -11.55782
   H       -5.41311         0.35965         7.73455
   H       -7.39065        -3.77992         5.80889
   H       -2.48391        -0.85235         3.14240
   H        0.35777        -0.50171         0.19786
   H       -1.12829        -0.66899        -0.78300
   H        0.47533        -2.35562        -1.55432
   H        0.49976        -3.28306         1.37347
   H        1.86555        -2.61728         0.46982
   H        1.18878        -4.18852         0.01969
   H       -4.79107       -12.27748        -0.65058
   H       -3.37044       -12.22012        -1.73857
   H       -5.03712       -13.73007        -2.73651
   H       -6.91044       -11.30631        -2.54491
   H       -7.11462       -12.86542        -1.73684
   H       -7.24392       -12.75930        -3.49827
   H       -4.64991       -11.65371        -6.73859
   H       -1.06539        -6.90823        -8.85442
   H       -3.77567        -9.89968       -11.77360
*
