# ORCA input file
# SCF done       -205.718718822129          0.000396943505
! CAM-B3LYP def2-SVP def2/J RIJCOSX Grid4 TightSCF
%maxcore 5000
%tddft
    Mode sTDDFT
    Ethresh 5.0
    maxcore 5000
end

%pal
  nprocs 6
  end
* xyz 0 1
   C        0.63291         0.03850         1.49508
   O        0.57348        -0.63746         2.49867
   C        1.09166         1.44237         1.43742
   C        1.01276         1.91632         0.11814
   C        1.39265         3.21938        -0.16108
   C        1.84454         4.01980         0.88206
   C        1.92066         3.53612         2.19013
   C        1.53945         2.23181         2.47576
  Br        2.54126         4.64786         3.58589
  Br        2.36197         5.79739         0.49892
   C        0.50929         0.84299        -0.73770
   C        0.34155         0.94601        -2.09425
   C        0.61599         2.11602        -2.83647
   N        0.81551         3.03068        -3.50005
   C       -0.11002        -0.06722        -2.96728
   N       -0.46110        -0.82550        -3.75547
   C        0.26042        -0.31482         0.10703
   C       -0.26924        -1.49247        -0.35647
   C       -0.54287        -2.71410         0.28140
   C       -0.32601        -3.18579         1.57398
   C       -0.75357        -4.49284         1.73339
   C       -1.31333        -5.04799         0.55340
   S       -1.29805        -3.95194        -0.74304
   C       -1.72367        -6.37013         0.82273
   C       -1.42622        -6.66028         2.17288
   C       -0.80382        -5.49600         2.78429
   C       -0.35789        -5.38927         4.06788
   C       -0.47312        -6.45451         4.98802
   N       -0.56206        -7.31288         5.74277
   C        0.25964        -4.22692         4.58068
   N        0.77272        -3.30511         5.02778
   C       -1.79279        -7.94434         2.54227
   C       -2.36961        -8.64860         1.49004
   S       -2.45376        -7.69086         0.01751
   C       -2.86340        -9.98079         1.49115
   C       -2.85542       -10.83997         2.62571
   C       -3.36910       -12.18012         2.57344
   N       -3.32921       -12.94518         3.68319
   C       -2.83222       -12.45768         4.78384
   C       -2.33205       -11.14129         4.83633
   N       -2.34879       -10.37309         3.78493
   C       -3.92058       -12.73400         1.38392
   C       -3.92143       -11.87856         0.26417
   C       -3.40824       -10.53723         0.31685
   N       -3.51890        -9.92183        -0.86297
   S       -4.19357       -10.91881        -1.92254
   N       -4.38269       -12.18116        -0.95180
   C       -4.44918       -14.04841         1.28122
   C       -4.55003       -15.01575         2.27588
   C       -5.12382       -16.18692         1.80838
   C       -5.47059       -16.12466         0.43969
   S       -5.08529       -14.61350        -0.25892
   C       -6.05010       -17.35958         0.07191
   C       -6.06731       -18.20451         1.20626
   C       -5.49648       -17.48957         2.33327
   C       -5.37845       -17.94179         3.61479
   C       -5.82424       -19.23087         3.97618
   N       -6.19284       -20.28303         4.24467
   C       -4.81435       -17.15828         4.64368
   N       -4.34937       -16.52758         5.48038
   C       -6.64463       -19.43791         0.95525
   C       -7.08162       -19.55818        -0.35926
   S       -6.72612       -18.10950        -1.29781
   C       -7.68989       -20.66178        -0.98723
   C       -8.29394       -21.74387        -0.41385
   C       -8.46198       -22.97922        -1.22677
   O       -8.31511       -23.08801        -2.42076
   C       -8.78862       -24.04001        -0.24905
   C       -8.93586       -23.46973         1.02873
   C       -8.78146       -22.01883         0.92054
   C       -9.27319       -21.11657         1.82710
   C       -9.33630       -19.72752         1.60060
   N       -9.43238       -18.59386         1.44793
   C       -9.86775       -21.48088         3.05452
   N      -10.36505       -21.72689         4.05822
   C       -9.19925       -24.27843         2.12034
   C       -9.32579       -25.64820         1.91581
   C       -9.19847       -26.20488         0.64100
   C       -8.92373       -25.39712        -0.45547
  Br       -9.38929       -28.06790         0.39049
  Br       -9.67197       -26.75934         3.40409
   H        1.34875         3.63276        -1.15524
   H        1.59097         1.84127         3.48033
   H       -0.53329        -1.50485        -1.40720
   H        0.11975        -2.57722         2.34071
   H       -1.66712        -8.38675         3.51262
   H       -2.82519       -13.11363         5.64299
   H       -1.91568       -10.71597         5.73863
   H       -4.20940       -14.83223         3.27776
   H       -6.70927       -20.23903         1.66859
   H       -7.61371       -20.70471        -2.06944
   H       -9.29467       -23.88112         3.11815
   H       -8.81805       -25.81886        -1.44290
*
