# ORCA input file
# SCF done       -268.859849806466          0.000699456862
! CAM-B3LYP def2-SVP def2/J RIJCOSX Grid4 TightSCF
%maxcore 5000
%tddft
    Mode sTDDFT
    Ethresh 5.0
    maxcore 5000
end

%pal
  nprocs 6
  end
* xyz 0 1
   C        2.72568         4.24743       -10.94637
   C        1.68552         4.78316       -10.23441
   C        0.42121         4.17010       -10.11892
   N       -0.63024         3.72217       -10.01164
   C        1.77810         5.95700        -9.45903
   N        1.80375         6.86569        -8.75806
   C        2.74893         2.91201       -11.53311
   C        4.10751         2.53051       -11.73804
   C        4.44094         1.30667       -12.24200
   C        3.41367         0.39752       -12.58094
   C        2.05338         0.77959       -12.39599
   C        1.73734         2.05106       -11.86470
   C        1.03839        -0.13379       -12.74666
   C        1.34966        -1.36661       -13.25187
   C        2.68925        -1.74265       -13.43149
   C        3.69901        -0.87954       -13.10292
   C        4.99071         3.64324       -11.34529
   O        6.19983         3.66654       -11.32568
   C        4.07369         4.77750       -11.02991
   C        4.56689         6.03722       -10.97488
   C        3.86556         7.29127       -11.04573
   C        2.67617         7.44138       -11.76957
   C        2.04961         8.66350       -11.84589
   C        2.56292         9.77387       -11.17045
   C        3.76918         9.63447       -10.47856
   C        4.41835         8.42352       -10.43527
   C        1.87728        11.06750       -11.23908
   C        1.34248        11.43939       -12.55903
   C        2.11221        11.24908       -13.70529
   C        1.61301        11.58504       -14.94956
   C        0.33363        12.10174       -15.06958
   C       -0.44591        12.27712       -13.93768
   C        0.05226        11.94954       -12.69144
   C        1.75016        11.86566       -10.15011
   C        1.26600        13.25121       -10.23309
   C        0.35748        13.72934        -9.28996
   C       -0.09703        15.03293        -9.35198
   C        0.36030        15.88286       -10.34532
   C        1.27986        15.42307       -11.27417
   C        1.73031        14.11830       -11.22094
   C        2.07605        11.38647        -8.80143
   C        2.83495        12.17441        -7.93284
   C        3.15799        11.72884        -6.67122
   C        2.69201        10.48504        -6.22236
   C        1.90195         9.71059        -7.08174
   C        1.60983        10.14886        -8.35111
   C        3.01250        10.01234        -4.90486
   C        3.99384        10.46405        -4.02171
   C        4.03440         9.71614        -2.78238
   N        4.93477        10.01112        -1.83726
   C        5.76847        10.99600        -2.07735
   C        6.77302        11.29593        -1.03071
   O        6.85370        10.66816         0.00598
   C        7.68219        12.41281        -1.34250
   C        7.62874        13.11835        -2.47676
   C        6.65169        12.86717        -3.55094
   O        6.61462        13.54242        -4.56005
   C        5.72126        11.74268        -3.29979
   N        4.85042        11.46747        -4.24272
   C        3.06098         8.71936        -2.71021
   S        2.14719         8.70085        -4.18165
   C        2.76569         7.81849        -1.63118
   C        3.65581         7.66063        -0.55964
   C        3.35801         6.79392         0.46759
   C        2.15367         6.08719         0.48744
   C        1.26897         6.24222        -0.58286
   C        1.57405         7.08125        -1.62820
   C        1.83974         5.16836         1.58807
   C        2.92293         4.25622         1.98271
   C        3.71145         3.64461         1.00926
   C        4.74103         2.79678         1.37123
   C        5.00850         2.55830         2.70902
   C        4.24358         3.17793         3.68412
   C        3.20916         4.02063         3.32667
   C        0.62188         5.16178         2.18455
   C        0.20045         4.10104         3.11359
   C       -0.45772         4.42941         4.29777
   C       -0.87185         3.43819         5.16731
   C       -0.64844         2.10588         4.86178
   C       -0.01033         1.76940         3.67890
   C        0.41178         2.75721         2.81021
   C       -0.35824         6.23076         1.96822
   C       -1.71473         5.93077         1.81189
   C       -2.64239         6.93541         1.66267
   C       -2.25736         8.28147         1.72834
   C       -0.89632         8.57950         1.86179
   C        0.03336         7.57183         1.97201
   C       -3.26315         9.30599         1.62441
   C       -3.28524        10.49357         2.28357
   C       -4.26923        11.54903         2.09533
   C       -5.10301        11.69358         1.01808
   C       -6.02557        12.75011         0.86993
   N       -6.80124        13.57830         0.69484
   C       -5.13538        10.83610        -0.10193
   N       -5.20776        10.20052        -1.05574
   C       -4.14980        12.47971         3.20933
   C       -3.07585        12.05346         4.04037
   C       -2.47279        10.82645         3.48904
   O       -1.55813        10.19958         3.97616
   C       -2.71851        12.73667         5.16672
   C       -3.43046        13.90485         5.51829
   C       -4.50975        14.33690         4.69438
   C       -4.85964        13.60541         3.53646
   C       -5.21407        15.50352         5.05626
   C       -4.86938        16.21083         6.17559
   C       -3.80641        15.78427         6.98583
   C       -3.10215        14.65605         6.66389
   H        5.47665         1.03452       -12.38152
   H        0.69913         2.31852       -11.74275
   H        0.00856         0.15889       -12.60334
   H        0.56491        -2.05972       -13.51560
   H        2.91695        -2.71931       -13.83169
   H        4.73239        -1.16331       -13.23902
   H        5.65047         6.10117       -10.93148
   H        2.26810         6.59696       -12.30686
   H        1.13733         8.76607       -12.41583
   H        4.20519        10.49427        -9.99290
   H        5.35149         8.33042        -9.89958
   H        3.11266        10.84985       -13.61207
   H        2.22378        11.44247       -15.82917
   H       -0.05637        12.36243       -16.04223
   H       -1.44850        12.66867       -14.02743
   H       -0.56186        12.07630       -11.81219
   H       -0.00273        13.06553        -8.51680
   H       -0.80934        15.38793        -8.62171
   H        0.00602        16.90186       -10.39226
   H        1.64969        16.08613       -12.04243
   H        2.45741        13.76762       -11.93838
   H        3.19232        13.13730        -8.26852
   H        3.77136        12.32982        -6.01966
   H        1.53926         8.74710        -6.75625
   H        1.00893         9.53159        -9.00121
   H        8.41545        12.63225        -0.57781
   H        8.31612        13.93225        -2.66553
   H        4.57348         8.22599        -0.54923
   H        4.05407         6.67352         1.28499
   H        0.34479         5.68330        -0.59290
   H        0.88379         7.18587        -2.45332
   H        3.50140         3.82700        -0.03528
   H        5.33850         2.32171         0.60689
   H        5.81420         1.89697         2.99116
   H        4.45709         3.00590         4.72884
   H        2.62524         4.51382         4.08949
   H       -0.62836         5.46906         4.53938
   H       -1.37225         3.70604         6.08642
   H       -0.97449         1.33202         5.54078
   H        0.15625         0.73135         3.43106
   H        0.89845         2.49146         1.88329
   H       -2.02940         4.89704         1.79370
   H       -3.68723         6.69043         1.53521
   H       -0.57009         9.60654         1.85379
   H        1.07683         7.81986         2.09243
   H       -4.10303         9.06194         0.98358
   H       -1.89892        12.39105         5.77928
   H       -5.68675        13.95316         2.93799
   H       -6.03083        15.82896         4.42876
   H       -5.41399        17.10394         6.44314
   H       -3.54855        16.35409         7.86604
   H       -2.28244        14.32233         7.28333
*
