# ORCA input file
# SCF done       -159.472592330158          0.000708247409
! CAM-B3LYP def2-SVP def2/J RIJCOSX Grid4 TightSCF
%maxcore 5000
%tddft
    Mode sTDDFT
    Ethresh 5.0
    maxcore 5000
end

%pal
  nprocs 6
  end
* xyz 0 1
   C       -1.33987         5.21997        -6.29504
   C       -0.60527         4.74232        -5.24702
   C       -0.90380         5.05591        -3.90604
   C       -1.95684         5.86787        -3.53398
   C       -2.74210         6.38223        -4.60476
   C       -2.42718         6.05371        -5.97543
   N       -3.31653         6.66661        -6.73553
   O       -4.12125         7.32459        -5.90858
   N       -3.79834         7.17056        -4.62788
   C       -2.26203         6.19059        -2.17275
   C       -3.28199         6.99826        -1.70909
   C       -3.27977         7.09636        -0.31733
   C       -2.24655         6.35271         0.28451
   S       -1.28376         5.53803        -0.86289
   C       -2.31573         6.51229         1.68874
   C       -3.39861         7.36769         1.97651
   C       -4.04258         7.75500         0.72968
   C       -5.13787         8.55410         0.58455
   C       -5.79859         9.13104         1.69030
   N       -6.34502         9.60563         2.57973
   C       -5.69702         8.85792        -0.67536
   N       -6.16704         9.11452        -1.68900
   C       -3.55555         7.59691         3.33618
   C       -2.60683         6.91777         4.09107
   S       -1.50211         5.98074         3.10016
   C       -2.48135         6.91524         5.50301
   C       -1.49412         6.12765         6.14066
   C       -1.36100         6.07311         7.56443
   N       -0.41169         5.29600         8.11274
   C        0.37569         4.60558         7.33434
   C        0.24681         4.66188         5.93293
   N       -0.66570         5.40437         5.36849
   C       -2.20115         6.81041         8.43166
   C       -3.17454         7.61750         7.80118
   C       -3.31404         7.66671         6.36218
   N       -4.29869         8.48991         5.99614
   S       -4.97379         9.12990         7.30021
   N       -4.06586         8.40670         8.40438
   C       -2.05668         6.71219         9.83840
   C       -2.80393         7.37448        10.80502
   C       -2.41224         7.02945        12.09087
   C       -1.35649         6.09548        12.10764
   S       -0.84433         5.65087        10.53386
   C       -1.04948         5.80758        13.45850
   C       -1.90289         6.55151        14.29581
   C       -2.78497         7.34986        13.46118
   C       -3.75425         8.21865        13.86722
   C       -4.03556         8.46395        15.22844
   N       -4.27672         8.67935        16.32808
   C       -4.54691         8.94233        12.95063
   N       -5.19867         9.53598        12.21730
   C       -1.67477         6.31745        15.65220
   C       -0.65759         5.40558        15.85623
   S        0.03071         4.82840        14.34257
   C       -0.15794         4.92380        17.10864
   C        0.88293         4.02298        17.21704
   C        1.36988         3.54870        18.45134
   C        0.84617         3.94422        19.64943
   C       -0.21886         4.86230        19.60038
   C       -0.72498         5.35635        18.34121
   N       -1.70920         6.18832        18.61857
   O       -1.81309         6.21537        19.94395
   N       -0.93272         5.43065        20.55521
   H       -1.11890         4.98531        -7.32212
   H        0.24013         4.09859        -5.43820
   H       -0.27440         4.63886        -3.13291
   H       -3.97697         7.47943        -2.37323
   H       -4.30622         8.21591         3.79173
   H        1.12559         3.99398         7.81512
   H        0.89294         4.09699         5.27644
   H       -3.58681         8.06254        10.54447
   H       -2.20772         6.77144        16.46796
   H        1.35003         3.66144        16.31217
   H        2.18885         2.84539        18.43371
   H        1.21146         3.58622        20.59658
*
