# ORCA input file
# SCF done       -285.298469342048          0.000296597048
! CAM-B3LYP def2-SVP def2/J RIJCOSX Grid4 TightSCF
%maxcore 5000
%tddft
    Mode sTDDFT
    Ethresh 5.0
    maxcore 5000
end

%pal
  nprocs 6
  end
* xyz 0 1
   C        0.69960         3.59616        -1.90022
   O        0.29223         4.54604        -2.52899
   C        2.00341         2.92038        -2.11603
   C        2.18794         1.91391        -1.15449
   C        3.33426         1.13644        -1.16328
   C        4.28404         1.38469        -2.14371
   C        4.11726         2.38272        -3.10186
   C        2.95951         3.16257        -3.08639
   F        2.79838         4.11254        -4.00354
   F        5.05575         2.58952        -4.02926
   F        5.39334         0.64314        -2.17464
   C        1.02069         1.89958        -0.27166
   C        0.91411         1.13844         0.86264
   C        1.90191         0.22973         1.30137
   N        2.66148        -0.52582         1.71256
   C       -0.15410         1.15894         1.78697
   N       -0.95735         1.11405         2.60625
   C        0.06332         2.86563        -0.78247
   C       -1.22662         2.95854        -0.32358
   C       -2.29591         3.79643        -0.69193
   C       -2.38023         4.87026        -1.55170
   C       -3.66358         5.42842        -1.64334
   C       -4.06237         6.54829        -2.41540
   C       -3.16694         7.22143        -3.32896
   C       -3.12550         8.55716        -3.62500
   C       -2.17874         8.86183        -4.62224
   C       -1.49737         7.78035        -5.10709
   S       -2.02732         6.34264        -4.31263
   C       -0.44222         7.73264        -6.14945
  Cl       -1.92035        10.47097        -5.18073
   C       -5.38305         6.95384        -2.28403
   C       -6.31902         6.28233        -1.45444
   C       -5.92083         5.18047        -0.66167
   C       -4.59972         4.77266        -0.79331
   S       -3.85259         3.46397         0.06908
   C       -6.85340         4.54174         0.24086
   C       -7.81098         5.13808         1.01306
   C       -8.55413         4.20969         1.77116
   C       -8.18367         2.90783         1.59243
   S       -6.87446         2.81329         0.46450
   C       -8.74217         1.68596         2.22303
  Cl       -9.82493         4.69789         2.82657
   C       -7.61362         6.81721        -1.59763
   C       -7.67992         7.88043        -2.46434
   S       -6.13223         8.27025        -3.16161
   C       -8.83628         8.64285        -2.79569
   C       -8.73505         9.74882        -3.66718
   C       -9.84256        10.57978        -4.02132
   N       -9.62630        11.62996        -4.84378
   C       -8.43150        11.87155        -5.30659
   C       -7.32525        11.02913        -4.96331
   N       -7.51387        10.01531        -4.16800
   C       -5.95157        11.26833        -5.48135
   C       -8.25987        13.05114        -6.19990
   C      -11.14034        10.31475        -3.52148
   C      -11.24774         9.20186        -2.66296
   C      -10.12300         8.37848        -2.28941
   N      -10.48754         7.40358        -1.45083
   S      -12.06156         7.50865        -1.16764
   N      -12.37583         8.78571        -2.08252
   C      -12.29307        11.10427        -3.81664
   C      -12.36012        12.25284        -4.56489
   C      -13.64684        12.81847        -4.62956
   C      -14.04214        13.98955        -5.31877
   C      -13.06422        14.85624        -5.93783
   C      -11.81002        15.16115        -5.48477
   C      -11.13011        16.06164        -6.33043
   C      -11.84003        16.45492        -7.42844
   S      -13.39884        15.70333        -7.42449
   C      -11.44042        17.39772        -8.50279
  Cl       -9.53229        16.61202        -5.99587
   C      -15.40125        14.26794        -5.32079
   C      -16.36582        13.47761        -4.63937
   C      -15.96340        12.32514        -3.92497
   C      -14.60313        12.03457        -3.93318
   S      -13.85424        10.65845        -3.16795
   C      -16.90030        11.46049        -3.24229
   C      -16.71160        10.77531        -2.07448
   C      -17.80959         9.95770        -1.73588
   C      -18.83829         9.98890        -2.63374
   S      -18.45602        11.06896        -3.92914
   C      -20.13081         9.26077        -2.59638
  Cl      -17.83110         8.99649        -0.30867
   C      -17.65671        14.03203        -4.73725
   C      -17.71112        15.20993        -5.44176
   S      -16.13757        15.64700        -6.08375
   C      -18.88350        15.95460        -5.71478
   C      -18.99010        17.24200        -6.14501
   C      -20.23373        17.69736        -6.82031
   O      -21.30069        17.13818        -6.83402
   C      -19.84168        18.95329        -7.51285
   C      -18.51868        19.29227        -7.17004
   C      -18.02848        18.31996        -6.19404
   C      -17.01219        18.53363        -5.30110
   C      -16.12060        19.62266        -5.36650
   N      -15.35253        20.47465        -5.40025
   C      -16.81658        17.72906        -4.15640
   N      -16.67812        17.14841        -3.17643
   C      -17.90857        20.41057        -7.71025
   C      -18.64093        21.18612        -8.59732
   C      -19.95538        20.87433        -8.93998
   C      -20.56403        19.74318        -8.39034
   F      -21.81644        19.45092        -8.72311
   F      -20.62863        21.65148        -9.79186
   F      -18.07186        22.26324        -9.14267
   H        3.51923         0.34915        -0.45186
   H       -1.50389         2.24163         0.44050
   H       -1.52417         5.24116        -2.08166
   H       -3.71159         9.30414        -3.12354
   H       -0.11306         8.74051        -6.39064
   H       -0.81996         7.26162        -7.05743
   H        0.40867         7.15023        -5.79997
   H       -7.95774         6.19981         1.07955
   H       -9.58638         1.95132         2.85451
   H       -7.98652         1.19154         2.83296
   H       -9.07389         0.97889         1.46378
   H       -8.48979         6.42947        -1.11385
   H       -5.94990        11.26740        -6.57007
   H       -5.28804        10.48913        -5.11838
   H       -5.58624        12.23905        -5.14906
   H       -7.86435        12.74124        -7.16582
   H       -7.55542        13.75679        -5.76206
   H       -9.21512        13.54677        -6.34582
   H      -11.49622        12.63863        -5.06902
   H      -11.39856        14.80261        -4.56005
   H      -10.35682        17.48631        -8.53343
   H      -11.86164        18.38653        -8.31630
   H      -11.80227        17.05415        -9.46939
   H      -15.84173        10.87089        -1.45265
   H      -20.13531         8.56578        -1.76054
   H      -20.28743         8.70779        -3.52153
   H      -20.96075         9.95751        -2.47874
   H      -18.52644        13.61655        -4.26263
   H      -19.81638        15.40273        -5.65475
   H      -16.89506        20.69336        -7.47771
*
