# ORCA input file
# SCF done       -186.917147324836          0.000605561706
! CAM-B3LYP def2-SVP def2/J RIJCOSX Grid4 TightSCF
%maxcore 5000
%tddft
    Mode sTDDFT
    Ethresh 5.0
    maxcore 5000
end

%pal
  nprocs 6
  end
* xyz 0 1
   C        5.19447        -1.75804        -5.37649
   C        5.69260        -0.50447        -5.19623
   C        6.08891        -0.26364        -3.86892
   C        5.87511        -1.36448        -3.06156
   S        5.19139        -2.68988        -3.92709
   C        6.23006        -1.26157        -1.68545
   C        6.77209        -0.06548        -1.24938
  Ge        6.86585         1.17682        -2.77405
   C        5.68735         2.76075        -2.57146
   C        8.72263         1.66032        -3.28505
   C        7.08438        -0.09616         0.11371
   C        6.78443        -1.29712         0.70269
   S        6.09122        -2.42520        -0.42406
   C        6.99049        -1.69864         2.07807
   S        6.96445        -0.36429         3.40774
   C        8.32302        -1.40578         3.83354
   C        8.25467        -2.24453         2.73057
   C        6.69243        -3.06947         2.55475
   C        6.05315        -3.61515         3.65264
   C        4.78207        -3.16055         4.19319
   O        4.07341        -2.31575         3.69776
   O        4.44251        -3.79964         5.33192
   C        6.88318        -4.66914         4.17315
   C        8.06714        -4.72043         3.52377
   C        8.09659        -3.71422         2.43884
   O        8.66137        -4.06915         1.22600
   C        9.15719        -1.38004         4.94771
   C       10.21012        -2.25195         5.22329
   C       10.89379        -1.95361         6.43347
   S       12.13979        -3.12615         6.68602
   C       11.64657        -3.89247         5.14739
   N       10.66933        -3.33085         4.54683
   C       12.36228        -5.08977         4.66562
   C       10.38966        -0.85470         7.11265
   S        9.03014        -0.19340         6.21585
   C       10.78033        -0.23944         8.31897
   S        9.76192         0.98462         9.02969
   C       10.84334         1.26727        10.37395
   C       11.96325         0.42674        10.26209
   C       11.91035        -0.40852         9.11155
   S       13.31640        -1.40649         8.96004
   C       13.95373        -0.72206        10.43174
   C       15.26047        -1.21244        10.88489
   O       15.90394        -2.04197        10.28831
   O       15.64001        -0.61820        12.01810
   C       16.89500        -1.02088        12.56844
   C       16.76357        -2.30578        13.37327
   C       13.14845         0.21717        11.00500
   C       10.48618         2.23795        11.32046
   C       11.22048         2.60347        12.41561
   C       10.78717         3.60162        13.30171
   C       11.50114         4.02591        14.39613
   C       11.11629         5.05592        15.33583
   C        9.93821         5.76235        15.35621
   C        9.62651         6.75294        16.30948
   N        9.30840         7.57245        17.04900
   C        8.86851         5.60702        14.45200
   N        7.94990         5.54088        13.76464
   C       12.20814         5.21794        16.29243
   C       13.23590         4.28736        15.96897
   C       12.83233         3.50533        14.78738
   O       13.47689         2.62042        14.25631
   C       14.39024         4.20511        16.69181
   C       14.57715         5.07040        17.79329
   C       13.55548         6.00634        18.12252
   C       12.36829         6.06552        17.35578
   C       13.75264         6.86772        19.22056
   C       14.90327         6.80921        19.95904
   C       15.90862         5.88676        19.63405
   C       15.74868         5.03559        18.57430
   H        4.82264        -2.20333        -6.27857
   H        5.77279         0.22112        -5.98697
   H        5.63181         3.31267        -3.50468
   H        6.07792         3.41976        -1.80225
   H        4.68640         2.45085        -2.28878
   H        9.33024         0.76688        -3.38734
   H        9.16477         2.29737        -2.52536
   H        8.72641         2.19527        -4.22972
   H        7.50769         0.72949         0.65890
   H        3.58400        -3.46979         5.63800
   H        6.58401        -5.28832         4.99861
   H        8.84658        -5.44693         3.65481
   H        8.36523        -4.95432         0.98391
   H       12.22651        -5.91605         5.36276
   H       13.42962        -4.88656         4.59423
   H       11.97805        -5.36954         3.68861
   H       17.20062        -0.18657        13.20250
   H       17.61292        -1.15656        11.75264
   H       16.01470        -2.18540        14.15238
   H       17.71857        -2.54730        13.83087
   H       16.46897        -3.12441        12.72108
   H       13.42311         0.71826        11.91399
   H        9.53995         2.73686        11.14515
   H       12.16612         2.13256        12.62012
   H        9.83218         4.06454        13.08946
   H       15.15394         3.48943        16.42511
   H       11.61577         6.78664        17.63200
   H       12.97538         7.57624        19.46703
   H       15.04495         7.47399        20.79802
   H       16.81046         5.85398        20.22714
   H       16.51970         4.32310        18.31902
*
