# ORCA input file
# SCF done       -191.516074989568          0.000434104634
! CAM-B3LYP def2-SVP def2/J RIJCOSX Grid4 TightSCF
%maxcore 5000
%tddft
    Mode sTDDFT
    Ethresh 5.0
    maxcore 5000
end

%pal
  nprocs 6
  end
* xyz 0 1
   C       -0.34418        -1.25909        -1.89932
   C       -0.46992        -0.35916        -2.92160
   C       -0.55190         1.02511        -2.69085
   C       -0.50813         1.57335        -1.42651
   C       -0.36462         0.66476        -0.34644
   C       -0.29287        -0.75349        -0.59069
   N       -0.17818        -1.45236         0.54025
   S       -0.16946        -0.43062         1.77812
   N       -0.30465         0.94350         0.95640
   C       -0.59408         3.01179        -1.18875
   C        0.12439         3.61353        -0.17352
   C        0.07963         4.98704         0.04725
   C       -0.67490         5.82895        -0.74889
   C       -1.46503         5.24250        -1.77746
   C       -1.43112         3.83783        -1.98919
   N       -2.22736         3.28497        -2.92579
   C       -3.01319         4.04721        -3.63837
   C       -3.04130         5.45618        -3.43193
   N       -2.28631         6.01141        -2.52088
   C       -3.93721         6.35033        -4.22157
   C       -3.88331         3.38386        -4.65279
   C       -0.70326         7.26332        -0.51965
   C       -0.89376         8.19193        -1.52253
   C       -1.04447         9.56596        -1.28516
   C       -1.01749        10.12143        -0.02319
   C       -0.70869         9.22134         1.02783
   C       -0.55685         7.80702         0.78538
   N       -0.30258         7.24577         1.95200
   O       -0.29193         8.22394         2.84919
   N       -0.53706         9.42211         2.31978
   C       -1.31073        11.51576         0.26526
   C       -0.53649        12.09825         1.37049
   C       -1.15288        12.74849         2.44119
   C       -0.42439        13.22095         3.52484
   C        0.95527        13.04320         3.56383
   C        1.59308        12.39213         2.51201
   C        0.84723        11.92707         1.43800
   F        1.48287        11.31723         0.43174
   F        2.91609        12.22157         2.53759
   F        1.66114        13.49679         4.59885
   F       -1.04341        13.84529         4.52876
   F       -2.47827        12.91782         2.43986
   C       -2.29590        12.20114        -0.39005
   C       -3.24475        11.47020        -1.25801
   C       -3.93985        10.34660        -0.80302
   C       -4.81783         9.64730        -1.62187
   C       -5.03740        10.07636        -2.92823
   C       -4.37784        11.20736        -3.39877
   C       -3.49852        11.88924        -2.56551
   F       -2.85140        12.95184        -3.05479
   F       -4.58090        11.62556        -4.64935
   F       -5.87155         9.40552        -3.72366
   F       -5.45558         8.57059        -1.16265
   F       -3.76944         9.92334         0.45062
   C       -2.49639        13.63196        -0.31047
   C       -3.74205        14.19287        -0.40529
   C       -4.01068        15.56358        -0.36750
   C       -2.92098        16.54060        -0.22407
   C       -1.61651        16.21270        -0.12107
   S       -1.03319        14.60039        -0.14813
   C       -3.55856        17.80735        -0.22343
   C       -4.94295        17.64564        -0.35699
   C       -5.60630        18.89509        -0.38249
   C       -4.73768        19.93238        -0.26627
   S       -3.08099        19.45292        -0.12262
   C       -5.23504        16.23958        -0.44042
   C       -6.51372        15.60320        -0.57540
   C       -7.70582        16.19962        -0.54159
   H       -0.28260        -2.32226        -2.06520
   H       -0.50616        -0.71225        -3.94160
   H       -0.64361         1.68403        -3.53871
   H        0.74723         3.00301         0.46017
   H        0.66471         5.40972         0.84845
   H       -3.77049         6.21694        -5.28892
   H       -3.74349         7.38438        -3.95177
   H       -4.98072         6.11975        -4.01271
   H       -3.72163         2.31037        -4.61750
   H       -3.65195         3.75189        -5.65145
   H       -4.93139         3.59799        -4.45049
   H       -0.94622         7.84717        -2.54151
   H       -1.17949        10.21392        -2.13826
   H       -4.57898        13.51142        -0.48374
   H       -0.83565        16.94924        -0.01536
   H       -6.66502        19.04146        -0.48820
   H       -4.96716        20.98037        -0.25579
   H       -6.47861        14.52921        -0.70796
   H       -7.81915        17.25763        -0.39593
   H       -8.61460        15.63344        -0.64955
*
