# ORCA input file
# SCF done       -219.469227041612          0.000399492415
! CAM-B3LYP def2-SVP def2/J RIJCOSX Grid4 TightSCF
%maxcore 5000
%tddft
    Mode sTDDFT
    Ethresh 5.0
    maxcore 5000
end

%pal
  nprocs 6
  end
* xyz 0 1
   C        4.69501         0.79731         5.19143
   C        4.50835         1.47385         6.35980
   S        5.98111         1.58806         7.24515
   C        6.86398         0.72814         6.04276
   C        6.05104         0.36919         5.01474
   C        6.17660        -0.35751         3.75124
   O        7.18807        -0.78773         3.23912
   C        4.78928        -0.42793         3.20267
   C        3.90792         0.37576         4.05285
   C        2.59464         0.69802         3.85228
   C        1.88402         1.47778         4.79197
   N        1.29271         2.10880         5.54494
   C        1.81067         0.35111         2.73311
   N        1.12395         0.11501         1.84359
   C        4.37513        -1.09807         2.10059
   C        5.07375        -2.00508         1.22212
   C        4.65015        -1.84655        -0.19138
   C        4.14906        -2.89899        -0.95565
   C        3.77835        -2.72722        -2.28340
   C        3.87078        -1.47099        -2.87458
   C        4.32604        -0.39336        -2.11993
   C        4.70318        -0.58970        -0.79573
   F        5.15055         0.45440        -0.09592
   F        4.40674         0.81636        -2.66913
   F        3.52322        -1.30291        -4.14765
   F        3.33875        -3.77196        -2.98985
   F        3.99787        -4.11206        -0.41358
   C        5.96424        -2.98567         1.55563
   C        6.31165        -3.25820         2.95436
   C        5.35654        -3.30364         3.96943
   C        5.71436        -3.36004         5.30900
   C        7.05839        -3.38702         5.66851
   C        8.03085        -3.38610         4.67449
   C        7.65674        -3.31457         3.33813
   F        8.61226        -3.30931         2.41515
   F        9.32059        -3.44249         5.00936
   F        7.40725        -3.41780         6.95574
   F        4.77060        -3.37215         6.25617
   F        4.05198        -3.31168         3.66428
   C        6.64780        -3.72516         0.50786
   S        7.51549        -2.84207        -0.70086
   C        7.84151        -4.29287        -1.60776
   C        7.24174        -5.39427        -1.00438
   C        6.64200        -5.07870         0.23451
   C        6.01828        -6.10489         1.14483
   N        6.41637        -5.84892         2.52384
   C        6.39865        -7.51453         0.67484
   C        6.15968        -7.64240        -0.81767
   C        7.14423        -6.76991        -1.61295
   N        6.75158        -6.66670        -3.01503
   C        8.73329        -4.12308        -2.70537
   C        9.11393        -5.04447        -3.62026
   C       10.08682        -4.80278        -4.63704
   C       10.33940        -5.74501        -5.62552
   C       11.29968        -5.58197        -6.62488
   C       12.15158        -4.48928        -6.69194
   C       11.91441        -3.48081        -5.71862
   C       10.88264        -3.62246        -4.71902
   N       10.88720        -2.51584        -4.00488
   O       11.83646        -1.73821        -4.51242
   N       12.46835        -2.29723        -5.54455
   C       13.14527        -4.37993        -7.71359
   C       14.29979        -3.66847        -7.71891
   C       14.97292        -3.38530        -9.01975
   O       14.74276        -3.90636       -10.08421
   C       15.93454        -2.30137        -8.72227
   C       15.94914        -2.05321        -7.33681
   C       15.05001        -2.99517        -6.67766
   C       15.09954        -3.34303        -5.35600
   C       14.38982        -4.42917        -4.80502
   N       13.85156        -5.31848        -4.31811
   C       15.93423        -2.71518        -4.40733
   N       16.59212        -2.23985        -3.59652
   C       16.75954        -1.05039        -6.82519
   C       17.54800        -0.31989        -7.70057
   C       17.53066        -0.59110        -9.06332
   C       16.72189        -1.58413        -9.59977
  Br       18.63913         0.42718       -10.22073
   H        3.61466         1.90752         6.76179
   H        7.91177         0.54197         6.16955
   H        3.35354        -0.92098         1.78365
   H        4.92757        -5.98743         1.10372
   H        7.41075        -6.02882         2.62961
   H        5.92102        -6.47858         3.14559
   H        5.80792        -8.25160         1.22283
   H        7.45577        -7.69354         0.89315
   H        5.13886        -7.32137        -1.04498
   H        6.26757        -8.68168        -1.13567
   H        8.13991        -7.23749        -1.59304
   H        5.87978        -6.15430        -3.09786
   H        6.60008        -7.59475        -3.39596
   H        9.16893        -3.13367        -2.77122
   H        8.64223        -6.01412        -3.63316
   H        9.75714        -6.65444        -5.62045
   H       11.42063        -6.36882        -7.35511
   H       12.92117        -4.89553        -8.64304
   H       16.77722        -0.82228        -5.77195
   H       18.18243         0.46719        -7.32269
   H       16.70351        -1.79349       -10.65810
*
