# ORCA input file
# SCF done       -236.217360439294          0.000828672898
! CAM-B3LYP def2-SVP def2/J RIJCOSX Grid4 TightSCF
%maxcore 5000
%tddft
    Mode sTDDFT
    Ethresh 5.0
    maxcore 5000
end

%pal
  nprocs 6
  end
* xyz 0 1
   C        0.90292         0.36406         4.23533
   C        2.12150         0.33566         4.85685
   C        2.49160        -0.61863         5.82721
   N        2.85101        -1.36866         6.61781
   C        3.11360         1.31888         4.66626
   N        3.93596         2.11305         4.56154
   C       -0.25068        -0.45780         4.60005
   C       -1.42005         0.15635         4.11314
   C       -2.67238        -0.37924         4.34090
   C       -2.75970        -1.55888         5.07128
   C       -1.60099        -2.18122         5.54740
   C       -0.33773        -1.63723         5.31733
   C       -1.76690        -3.42783         6.34447
   O       -2.81471        -3.76778         6.83746
   O       -0.63293        -4.11488         6.45885
   C       -0.70391        -5.31696         7.21346
   C       -4.09695        -2.21415         5.28747
   O       -4.53328        -3.07583         4.57321
   O       -4.74559        -1.64975         6.30054
   C       -5.99731        -2.23458         6.63911
   C       -1.05456         1.37426         3.35491
   O       -1.79325         2.18460         2.84762
   C        0.43492         1.36693         3.30554
   C        1.06106         2.17793         2.41168
   C        2.38724         2.13754         1.89425
   C        2.93722         3.25495         1.27258
   C        4.22142         3.29032         0.74076
   C        5.07771         2.19441         0.73696
   C        4.53801         1.00634         1.31063
   C        3.21403         0.98123         1.88533
   N        2.99196        -0.25299         2.29203
   O        4.09430        -0.94764         2.00338
   N        5.03082        -0.20937         1.41615
   C        6.38620         2.23055         0.18820
   C        7.32999         1.21346         0.15270
   C        8.51264         1.57888        -0.47264
   C        8.47874         2.89724        -0.92786
   S        6.99360         3.68357        -0.57544
   C        9.61788         3.39212        -1.60114
   C       10.70125         2.53506        -1.76793
  Ge       10.26647         0.79839        -0.92979
   C       10.15250        -0.69793        -2.22503
   C       11.38184         0.40182         0.65953
   C       11.74524         3.14699        -2.45542
   C       11.47523         4.45461        -2.81342
   S        9.88776         4.94983        -2.28847
   C       12.30829         5.36694        -3.51381
   C       12.04308         6.66923        -3.83011
   C       13.08654         7.31299        -4.52876
   C       14.20024         6.46494        -4.75871
   S       13.88684         4.87403        -4.08421
   C       15.33106         6.92367        -5.41590
   O       16.46915         6.26024        -5.71605
   C       16.64402         4.92179        -5.31381
   C       15.30503         8.27270        -5.84104
   C       14.18482         9.11780        -5.61412
   C       13.05931         8.66050        -4.95355
   O       11.91755         9.32454        -4.65214
   C       11.83325        10.71637        -4.85230
   S       14.49432        10.71076        -6.27217
   C       16.11011        10.25062        -6.78162
   C       16.35366         8.92822        -6.51309
   C       16.97824        11.14291        -7.45592
   C       16.94156        12.50360        -7.47877
   C       16.23501        13.45739        -6.65205
   C       15.94239        13.31062        -5.32208
   C       15.29413        14.29048        -4.54424
   N       14.74583        15.03872        -3.86821
   C       16.34875        12.19277        -4.56129
   N       16.72032        11.33659        -3.89307
   C       16.16327        14.70913        -7.40316
   C       17.00528        14.60987        -8.52741
   C       17.60229        13.25298        -8.57990
   O       18.41126        12.82766        -9.36968
   C       17.17413        15.66584        -9.40109
   C       16.48464        16.84655        -9.14760
   C       15.64000        16.94757        -8.03739
   C       15.47337        15.88149        -7.15439
   C       14.95588        18.24952        -7.80476
   O       15.30380        19.28540        -8.31615
   O       13.93002        18.14196        -6.96300
   C       13.22766        19.34418        -6.67733
   C       16.58346        18.00119       -10.10756
   O       15.78910        18.19830       -10.98698
   O       17.69373        18.69995        -9.89917
   C       17.85618        19.86140       -10.70443
   H       -3.55453         0.10915         3.95659
   H        0.53467        -2.14558         5.69394
   H        0.27890        -5.77540         7.14355
   H       -1.47021        -5.97678         6.80151
   H       -0.95168        -5.09563         8.25359
   H       -6.45661        -1.57138         7.36743
   H       -5.83051        -3.22363         7.06918
   H       -6.62398        -2.33155         5.75029
   H        0.42148         2.94161         1.97750
   H        2.34388         4.15671         1.23225
   H        4.57329         4.21565         0.30823
   H        7.13175         0.24546         0.57701
   H        9.71402        -1.56753        -1.74532
   H       11.14316        -0.96232        -2.58208
   H        9.53658        -0.42048        -3.07466
   H       11.41355         1.25981         1.32371
   H       12.39494         0.15606         0.35629
   H       10.96739        -0.44295         1.20091
   H       12.67965         2.66864        -2.69453
   H       11.12706         7.16761        -3.57073
   H       17.63711         4.64502        -5.66485
   H       15.90219         4.26222        -5.77164
   H       16.60365         4.81887        -4.22661
   H       10.85585        11.00216        -4.46617
   H       11.89175        10.97902        -5.91204
   H       12.60964        11.25034        -4.29819
   H       17.28079         8.43996        -6.75162
   H       17.71952        10.68110        -8.10041
   H       17.82502        15.56961       -10.25631
   H       14.81372        15.99087        -6.30903
   H       12.47203        19.08425        -5.94084
   H       12.76360        19.73444        -7.58536
   H       13.91160        20.09677        -6.28016
   H       18.85258        20.24058       -10.49374
   H       17.09769        20.59832       -10.43513
   H       17.75081        19.60889       -11.76135
*
