# ORCA input file
# SCF done       -171.505229457651          0.000564781837
! CAM-B3LYP def2-SVP def2/J RIJCOSX Grid4 TightSCF
%maxcore 5000
%tddft
    Mode sTDDFT
    Ethresh 5.0
    maxcore 5000
end

%pal
  nprocs 6
  end
* xyz 0 1
   C      -12.64028         5.65988         9.32906
   C      -13.08752         6.08648         8.11259
   C      -12.34085         6.95605         7.28918
   C      -11.09903         7.45270         7.63139
   C      -10.60367         7.02589         8.89880
   C      -11.37936         6.13477         9.73351
   N      -10.68072         5.91538        10.83144
   O       -9.55613         6.60983        10.70236
   N       -9.48695         7.28325         9.55266
   C      -10.34595         8.34092         6.76997
   C       -9.09382         8.83004         7.10808
   C       -8.34033         9.68179         6.29517
   C       -8.77033        10.13157         5.05641
   C      -10.05614         9.65907         4.66921
   C      -10.83612         8.77647         5.50732
   N      -11.96016         8.53351         4.85926
   O      -11.89736         9.20424         3.71067
   N      -10.75895         9.88760         3.57793
   C       -8.01797        10.99411         4.20401
   N       -8.51851        11.40599         2.99027
   C       -7.59843        12.20349         2.39486
   C       -7.32966        12.95870         1.26114
   C       -6.04943        13.50265         1.45057
   N       -5.55145        13.09236         2.67066
   C       -6.47633        12.29826         3.26612
   C       -6.74175        11.54033         4.40024
   C       -5.34178        14.32870         0.54979
   C       -4.09211        14.82409         0.75279
   C       -3.39459        15.62083        -0.18008
   S       -4.08144        16.04451        -1.71443
   C       -2.10207        16.14037        -0.05771
   C       -1.23211        15.82628         1.09263
   O       -1.60284        15.22932         2.09379
   C        0.13511        16.26786         0.89236
   C        1.26408        16.04481         1.65063
   N        2.30761        16.68139         1.06773
   C        3.67703        16.61131         1.51209
   C        4.40108        15.42906         0.87128
   C        1.88343        17.32163        -0.04668
   C        0.53353        17.08838        -0.19823
   C       -0.38154        17.59756        -1.19967
   O       -0.08945        18.52806        -1.93430
   C       -1.69395        16.91330        -1.17944
   C       -2.65535        16.93447        -2.19457
   C       -2.67323        17.37038        -3.54222
   C       -1.69046        18.02347        -4.21761
   C       -1.73844        18.26796        -5.60313
   C       -0.67726        18.68564        -6.35823
   C       -0.87774        19.27473        -7.70092
   O       -1.87972        19.24070        -8.37751
   C        0.40037        19.96106        -8.01178
   C        1.32598        19.71891        -6.98083
   C        2.58871        20.28639        -7.03423
   C        2.89706        21.08459        -8.12569
   C        1.97802        21.31013        -9.15055
   C        0.71238        20.74761        -9.10277
   F        2.32239        22.08077       -10.19035
   F        4.10785        21.65141        -8.19351
   C        0.71934        18.81015        -6.00639
   C        1.40893        18.07083        -5.08121
   C        0.89502        16.95363        -4.38617
   N        0.59370        15.98658        -3.84584
   C        2.77155        18.25854        -4.77166
   N        3.86703        18.37451        -4.44756
   H      -13.20013         4.99647         9.96595
   H      -14.04904         5.75459         7.75062
   H      -12.76482         7.24660         6.34126
   H       -8.67526         8.53325         8.05680
   H       -7.37582        10.00045         6.65653
   H       -9.42567        11.12369         2.64847
   H       -7.94783        13.11344         0.40008
   H       -4.64961        13.34772         3.03436
   H       -6.11359        11.39048         5.25426
   H       -5.85725        14.56449        -0.37266
   H       -3.54919        14.61774         1.66340
   H        1.37486        15.47972         2.55478
   H        3.68399        16.51036         2.60050
   H        4.17727        17.54506         1.24343
   H        3.91287        14.49493         1.13860
   H        5.43137        15.39548         1.21365
   H        4.39551        15.52445        -0.21175
   H        2.54928        17.88482        -0.67016
   H       -3.55275        17.05948        -4.09669
   H       -0.83023        18.37816        -3.67211
   H       -2.68869        18.18130        -6.11901
   H        3.32940        20.14206        -6.26463
   H        0.00037        20.92201        -9.89357
*
