# ORCA input file
# SCF done       -201.011794290521          0.000602945264
! CAM-B3LYP def2-SVP def2/J RIJCOSX Grid4 TightSCF
%maxcore 5000
%tddft
    Mode sTDDFT
    Ethresh 5.0
    maxcore 5000
end

%pal
  nprocs 6
  end
* xyz 0 1
   C       -6.54640        -2.16266         2.71445
   O       -5.93468        -3.09746         3.21178
   C       -7.72565        -1.50188         3.30416
   C       -8.13310        -0.45026         2.46573
   C       -9.24049         0.30644         2.81651
   C       -9.92249        -0.00775         3.98474
   C       -9.50265        -1.05709         4.78892
   C       -8.39051        -1.82324         4.46808
  Br      -10.48562        -1.46950         6.36450
   C       -7.23124        -0.39855         1.31173
   C       -7.31387         0.51657         0.29156
   C       -8.28305         1.53866         0.22679
   N       -9.04625         2.38917         0.11540
   C       -6.45646         0.57945        -0.82578
   N       -5.80049         0.69491        -1.76185
   C       -6.27612        -1.47384         1.45902
   C       -5.28194        -1.81058         0.55688
   C       -4.37806        -2.86464         0.59330
   S       -4.25383        -4.08530         1.83981
   C       -2.98595        -4.95328         1.00175
   C       -2.65918        -4.29272        -0.17583
   C       -3.42665        -3.13040        -0.41770
   C       -3.06293        -2.49532        -1.62329
   C       -2.05088        -3.15669        -2.26192
   C       -1.41754        -2.77096        -3.52557
   O       -1.72189        -1.80719        -4.18043
   O       -0.44622        -3.63509        -3.85763
   C        0.24553        -3.35828        -5.06563
   S       -1.50054        -4.58596        -1.42890
   C       -2.45303        -6.12618         1.58601
   C       -2.97556        -6.59423         2.77565
   C       -2.51279        -7.68526         3.48860
   C       -1.46831        -8.55465         2.92742
   C       -0.82554        -8.30069         1.76559
   S       -1.11676        -6.92882         0.77143
   C       -1.34375        -9.62805         3.85002
   C       -2.22634        -9.43664         4.91883
   C       -2.13526       -10.47278         5.87528
   C       -1.21291       -11.40240         5.51656
   S       -0.41490       -11.06294         4.01566
   C       -2.94867        -8.21103         4.72611
   C       -3.87189        -7.68020         5.66117
   C       -4.33254        -6.40344         5.71205
   C       -5.26009        -5.90860         6.66182
   C       -5.73054        -4.62203         6.73489
   C       -6.61852        -4.39304         7.80512
   C       -6.84881        -5.55837         8.58585
   S       -5.93802        -6.90767         7.92882
   C       -7.66314        -5.52763         9.70540
   O       -7.97642        -6.52680        10.55937
   C       -7.42655        -7.81250        10.39153
   C       -8.26084        -4.28215        10.01532
   C       -8.03783        -3.11971         9.22885
   C       -7.20618        -3.14730         8.12476
   O       -6.87951        -2.12226         7.29531
   C       -7.00103        -0.79485         7.75495
   S       -8.94401        -1.77201         9.87537
   C       -9.54465        -2.74142        11.20791
   C       -9.11555        -4.04218        11.10457
   C      -10.43665        -2.24917        12.18792
   C      -10.75456        -0.96180        12.49787
   C      -12.02896        -0.66696        13.20223
   O      -12.73916        -1.44782        13.79045
   C      -12.26229         0.77856        12.97202
   C      -11.15532         1.33437        12.30345
   C      -10.13779         0.29829        12.14680
   C       -8.79581         0.52179        11.98198
   C       -8.24115         1.77969        11.67640
   N       -7.74338         2.77628        11.39837
   C       -7.81388        -0.46664        12.20884
   N       -6.97870        -1.21297        12.46098
   C      -11.16233         2.67619        11.95484
   C      -12.26977         3.44354        12.28331
   C      -13.34538         2.87952        12.95680
   C      -13.36284         1.53725        13.31240
  Br      -14.83324         3.97489        13.39952
   H       -9.58839         1.12367         2.20681
   H      -10.79090         0.56757         4.26695
   H       -8.05034        -2.63229         5.09493
   H       -5.18860        -1.18948        -0.32398
   H       -3.50373        -1.59742        -2.01766
   H        0.99065        -4.14181        -5.17433
   H        0.72217        -2.37738        -5.01211
   H       -0.44794        -3.36565        -5.90895
   H       -3.83283        -6.05746         3.15166
   H       -0.05503        -8.94852         1.37800
   H       -2.71800       -10.53151         6.77647
   H       -0.93641       -12.29232         6.04745
   H       -4.20305        -8.36686         6.43222
   H       -3.96974        -5.65268         5.02727
   H       -5.45319        -3.85542         6.03402
   H       -6.33630        -7.79741        10.46553
   H       -7.72241        -8.25729         9.43796
   H       -7.83438        -8.40681        11.20799
   H       -8.04486        -0.47818         7.82693
   H       -6.49152        -0.18355         7.01070
   H       -6.51689        -0.66316         8.72602
   H       -9.37986        -4.80681        11.81187
   H      -11.01437        -3.00638        12.70898
   H      -10.33590         3.12644        11.42900
   H      -12.29713         4.48902        12.01660
   H      -14.19809         1.09713        13.83479
*
