# ORCA input file
# SCF done       -223.352452554378          0.000798853064
! CAM-B3LYP def2-SVP def2/J RIJCOSX Grid4 TightSCF
%maxcore 5000
%tddft
    Mode sTDDFT
    Ethresh 5.0
    maxcore 5000
end

%pal
  nprocs 6
  end
* xyz 0 1
   C       14.72891        -6.33663        -1.16799
   C       13.81940        -5.33316        -0.84508
   C       14.21875        -4.19362        -0.07019
   N       13.28735        -3.28919         0.29523
   C       12.06749        -3.43244        -0.13885
   C       11.70101        -4.50710        -0.98072
   N       12.54411        -5.44488        -1.29553
   C       15.57455        -4.03631         0.33182
   C       16.47462        -5.09340         0.01816
   C       16.04607        -6.23696        -0.72847
   N       16.92212        -7.22646        -1.03541
   C       18.15089        -7.09288        -0.63105
   C       18.57446        -5.96772         0.11241
   N       17.75863        -4.99984         0.42519
   C       16.09736        -2.89855         1.00310
   C       15.42710        -1.73134         1.24116
   C       15.97729        -0.61538         1.87948
   C       15.26125         0.54961         2.05520
   C       15.68036         1.77146         2.62675
   C       14.73117         2.75447         2.60943
   C       13.51225         2.34999         2.02912
   S       13.59750         0.68593         1.51577
   C       12.35682         3.07991         1.79177
   C       12.08527         4.44859         1.96364
   C       10.86312         4.82727         1.48281
   C       10.10732         3.78048         0.90269
   S       10.98767         2.27877         1.05570
   C        8.83944         3.91237         0.37506
   C        8.02915         2.96458        -0.28405
   C        6.58163         3.27740        -0.26292
   C        5.93173         3.61524         0.92440
   C        4.57825         3.93271         0.95995
   C        3.83738         3.92886        -0.21673
   C        4.46563         3.61318        -1.41870
   C        5.81854         3.30054        -1.43246
   F        6.39210         3.02365        -2.60564
   F        3.76578         3.61602        -2.55495
   F        2.53876         4.22658        -0.19513
   F        3.98971         4.23530         2.11894
   F        6.61043         3.60064         2.07753
   C        8.44924         1.82820        -0.97502
   C        9.80918         1.69820        -1.49834
   C       10.52697         0.49939        -1.39572
   C       11.81280         0.36325        -1.89946
   C       12.43039         1.44084        -2.52553
   C       11.74205         2.64468        -2.64393
   C       10.45323         2.76061        -2.14199
   F        9.82268         3.92947        -2.29175
   F       12.32497         3.68812        -3.24008
   F       13.67272         1.32539        -2.99710
   F       12.46647        -0.79478        -1.76981
   F        9.99956        -0.53870        -0.73901
   C        7.53570         0.77385        -1.29599
   C        6.40766         0.39986        -0.60584
   C        5.69798        -0.65026        -1.21636
   C        6.31600        -1.09539        -2.39972
   S        7.75690        -0.19066        -2.74772
   C        5.83338        -2.13391        -3.18348
   O        6.59936        -2.39688        -4.27085
   C        6.23317        -3.31799        -5.26683
   C        4.64686        -2.75885        -2.73474
   C        4.00207        -2.28690        -1.54162
   C        4.49244        -1.24525        -0.77313
   O        3.98335        -0.68952         0.35007
   C        2.77919        -1.15477         0.92039
   S        2.55577        -3.22033        -1.20388
   C        2.81266        -4.21660        -2.60337
   C        3.94220        -3.84638        -3.29382
   C        1.92536        -5.26980        -2.94128
   C        2.07036        -6.14267        -4.10806
   N        1.13723        -7.04009        -4.23115
   C        0.30228        -6.84612        -3.17084
   C        0.77417        -5.73113        -2.33181
   C       -0.11547        -5.54541        -1.21796
   S       -0.03194        -4.45023         0.00316
   C       -1.13327        -6.56044        -1.39822
   C       -0.84568        -7.35104        -2.61828
   N       -1.79393        -8.30420        -2.80017
   C       -2.62607        -8.15609        -1.79825
   C       -2.27533        -7.08721        -0.88438
   H       14.41898        -7.17535        -1.76919
   H       11.34353        -2.70074         0.19127
   H       10.69413        -4.60232        -1.36419
   H       18.83767        -7.88989        -0.88283
   H       19.59555        -5.87204         0.45685
   H       17.13339        -2.98935         1.30424
   H       14.40237        -1.65415         0.90421
   H       16.99866        -0.64728         2.23553
   H       16.67246         1.89400         3.02432
   H       14.87692         3.74776         2.99453
   H       12.79461         5.12015         2.41271
   H       10.49021         5.83562         1.50705
   H        8.38361         4.88031         0.54353
   H        6.11210         0.81714         0.33828
   H        6.98291        -3.19863        -6.04906
   H        5.24646        -3.09533        -5.68198
   H        6.27057        -4.34727        -4.89751
   H        2.85620        -2.19568         1.24196
   H        1.93634        -1.04604         0.23414
   H        2.61561        -0.52228         1.79198
   H        4.23826        -4.37264        -4.17894
   H        2.86218        -6.08873        -4.83458
   H       -3.48415        -8.79903        -1.70625
   H       -2.82514        -6.80801        -0.00749
*
