# ORCA input file
# SCF done       -159.665374462403          0.000552633924
! CAM-B3LYP def2-SVP def2/J RIJCOSX Grid4 TightSCF
%maxcore 5000
%tddft
    Mode sTDDFT
    Ethresh 5.0
    maxcore 5000
end

%pal
  nprocs 6
  end
* xyz 0 1
   C        1.97980        -0.23016         1.24715
   C        1.63385         1.05658         0.86379
   F        2.23658         2.09335         1.45496
   C        0.67750         1.29417        -0.12517
   F        0.37114         2.55324        -0.45845
   C        0.04579         0.24130        -0.76705
   C        0.39621        -1.04144        -0.39333
   C        1.35130        -1.28825         0.60952
   C        1.47455        -2.73243         0.79886
   C        1.96796        -3.34733         1.91788
   C        2.59735        -2.66104         2.97703
   N        3.13207        -2.14577         3.85179
   C        1.82634        -4.72608         2.18213
   N        1.68567        -5.82390         2.48508
   C        0.74156        -3.36761        -0.27977
   C       -0.09785        -2.32888        -0.93454
   O       -0.95810        -2.50231        -1.76429
   C        0.77900        -4.62712        -0.78262
   C        1.76485        -5.64779        -0.55751
   C        1.38458        -6.99811        -0.61861
   C        2.32555        -7.97116        -0.39975
   C        3.67120        -7.62800        -0.17267
   C        4.06595        -6.29627        -0.15683
   C        3.11104        -5.31947        -0.33468
   C        4.43469        -8.84278        -0.01197
   C        3.56323        -9.93923        -0.13119
   C        2.14677        -9.47021        -0.36634
   C        1.21862        -9.88611         0.79191
   C        1.70242        -9.39238         2.14996
   C        1.58784       -10.00417        -1.69801
   C        2.45966        -9.63958        -2.89384
   C        4.03663       -11.22484        -0.03936
   C        5.40751       -11.44874         0.16993
   C        6.26072       -10.34165         0.29816
   C        5.78918        -9.04956         0.21192
   C        5.94906       -12.78416         0.23832
   N        5.22152       -13.89536        -0.13109
   C        6.00554       -14.99800         0.01209
   C        6.04909       -16.37671        -0.14193
   C        7.33816       -16.77184         0.25580
   N        8.05394       -15.65818         0.64718
   C        7.26377       -14.56647         0.50517
   C        7.22432       -13.18123         0.64466
   C        7.86658       -18.08147         0.24788
   C        9.14084       -18.40632         0.60019
   C        9.69786       -19.70164         0.57030
   C        9.06950       -20.97504         0.19294
   N        9.85816       -22.00522         0.25336
   C       11.07048       -21.51742         0.67128
   C       10.99291       -20.07090         0.88205
   C       12.26330       -19.56190         1.30987
   S       12.65741       -18.00084         1.66504
   C       13.11444       -20.72554         1.35199
   C       12.35169       -21.91666         0.95437
   N       13.15065       -23.02690         0.98305
   C       14.32155       -22.60373         1.35876
   C       14.39507       -21.15797         1.61327
   C       15.52072       -20.39337         2.02506
   C       16.75999       -20.88454         2.24218
   C       17.86297       -20.06480         2.65078
   C       19.09396       -20.53568         2.85840
   H        2.72582        -0.36613         2.01324
   H       -0.69302         0.42350        -1.53110
   H       -0.00678        -4.86316        -1.49387
   H        0.34896        -7.24764        -0.79603
   H        5.10079        -6.02893        -0.00628
   H        3.40590        -4.27979        -0.34882
   H        1.14616       -10.97633         0.80388
   H        0.22086        -9.48810         0.59695
   H        2.69335        -9.78324         2.37145
   H        1.02057        -9.72625         2.92845
   H        1.74558        -8.30680         2.17625
   H        0.58463        -9.59912        -1.84367
   H        1.49944       -11.09068        -1.63105
   H        2.54285        -8.55965        -2.99322
   H        2.02584       -10.03649        -3.80866
   H        3.46087       -10.04998        -2.78085
   H        3.34875       -12.05445        -0.11418
   H        7.31428       -10.50875         0.45262
   H        6.46553        -8.21405         0.30992
   H        4.28864       -13.87656        -0.50299
   H        5.28099       -17.03602        -0.49372
   H        9.00267       -15.67321         0.97879
   H        8.00341       -12.54292         1.00728
   H        7.18773       -18.85586        -0.07939
   H        9.82648       -17.63440         0.92504
   H        8.04546       -21.09950        -0.11412
   H       15.13656       -23.29856         1.46089
   H       15.33804       -19.33456         2.16249
   H       16.96158       -21.93859         2.10705
   H       17.65452       -19.01153         2.78806
   H       19.32743       -21.57972         2.72748
   H       19.90409       -19.89692         3.16407
*
