# ORCA input file
# SCF done       -220.961330010151          0.000918423150
! CAM-B3LYP def2-SVP def2/J RIJCOSX Grid4 TightSCF
%maxcore 5000
%tddft
    Mode sTDDFT
    Ethresh 5.0
    maxcore 5000
end

%pal
  nprocs 6
  end
* xyz 0 1
   C       -6.14776         2.92030         0.22229
   C       -6.82070         4.01813        -0.29186
   C       -7.34784         4.99230         0.54555
   C       -7.21244         4.90237         1.92334
   C       -6.54303         3.81076         2.44981
   C       -6.01278         2.81301         1.59804
   C       -5.38240         1.78929         2.41517
   C       -4.56457         0.78196         1.97667
   C       -4.26128         0.54138         0.61916
   N       -3.97397         0.29233        -0.46338
   C       -3.84550        -0.08563         2.81760
   N       -3.19413        -0.80238         3.43671
   C       -5.75113         2.07493         3.79745
   C       -6.23118         3.45734         3.82628
   C       -6.16683         4.31184         4.88558
   C       -5.59030         3.96275         6.12810
   N       -5.04505         3.75356         7.11531
   C       -6.55024         5.66832         4.81968
   N       -6.84031         6.77791         4.80499
   C       -5.81411         1.13614         4.78457
   C       -6.52161         1.26176         6.01050
   N       -7.48038         2.17505         6.16244
   C       -8.04667         1.92827         7.35501
   C       -7.42870         0.77338         8.00336
   C       -8.05226         0.50722         9.31000
   O       -7.80590        -0.38071        10.09556
   C       -9.05512         1.58778         9.40619
   C       -9.02628         2.42551         8.18823
   N       -9.93293         3.42508         8.26985
   C      -10.50378         3.27336         9.44327
   C       -9.99741         2.15052        10.20628
   C       -6.42705         0.34604         7.16631
   C       -5.52666        -0.73043         7.41835
   C       -4.31846        -0.90745         6.84479
   C       -3.41767        -2.00493         7.08399
   C       -2.29561        -2.11119         6.27899
   C       -1.42236        -3.19579         6.42748
   C       -0.26986        -3.54120         5.71145
   C        0.22535        -2.82425         4.51783
   C        1.75617        -2.67084         4.44890
   N        2.06801        -1.40648         3.81023
   C       -0.31112        -3.53075         3.22484
   N       -1.73333        -3.52213         3.06470
   C        0.21079        -4.77883         6.27193
   C        1.23897        -5.58166         5.93292
   C        1.54317        -6.81891         6.70200
   C        0.53044        -7.18619         7.73534
   C       -0.49759        -6.37285         8.06302
   C       -0.69530        -5.16237         7.36902
   C       -1.68101        -4.18769         7.45190
   C       -2.80681        -4.03861         8.28811
   C       -3.64793        -2.98427         8.09933
   C        2.80896        -6.56244         7.47959
   C        3.96074        -7.22496         7.29676
   C        5.10462        -6.97753         8.11575
   N        5.03409        -6.21546         9.19874
   C        6.26216        -6.23452         9.74630
   C        7.19575        -7.03755         8.94440
   C        8.52546        -7.06562         9.57902
   O        9.54111        -7.60296         9.18212
   C        8.31976        -6.27634        10.79904
   C        6.93088        -5.77289        10.85872
   N        6.73344        -5.04870        11.98220
   C        7.88453        -5.07756        12.61646
   C        8.91541        -5.82955        11.93678
   C        6.45901        -7.52786         7.88910
   C        6.85862        -8.36591         6.81398
   C        8.14083        -8.78827         6.67349
   C        8.58489        -9.62068         5.62028
   C        9.80931       -10.22433         5.58497
   C       10.46665       -10.74412         4.39167
   C        9.87058       -11.09152         3.20943
   C        8.48165       -11.05057         2.96504
   N        7.36334       -11.04402         2.70414
   C       10.56806       -11.57530         2.08202
   N       11.07255       -11.96925         1.12941
   C       11.88888       -10.81164         4.69712
   C       12.08149       -10.50023         6.06344
   C       13.35489       -10.46630         6.60656
   C       14.43371       -10.74769         5.78170
   C       14.24638       -11.06476         4.44345
   C       12.97660       -11.10078         3.88745
   C       10.77859       -10.28965         6.67585
   C       10.49119       -10.37588         8.00934
   C        9.18572       -10.51264         8.53372
   N        8.15541       -10.71723         8.99537
   C       11.47380       -10.48080         9.01757
   N       12.23530       -10.56844         9.87082
   H       -5.75133         2.16745        -0.43965
   H       -6.93959         4.11152        -1.36044
   H       -7.87420         5.83267         0.11962
   H       -7.63331         5.65949         2.56473
   H       -5.39906         0.15742         4.58375
   H      -11.27954         3.94866         9.75995
   H      -10.32799         1.86184        11.18434
   H       -5.87560        -1.41164         8.18312
   H       -3.95896        -0.17644         6.13247
   H       -2.11377        -1.36713         5.51910
   H       -0.18570        -1.81000         4.52298
   H        2.19966        -3.53830         3.93163
   H        2.16219        -2.63361         5.46351
   H        1.80052        -1.41859         2.83198
   H        3.05972        -1.20672         3.86188
   H        0.03050        -4.57047         3.22863
   H        0.12354        -3.02331         2.35989
   H       -2.20205        -4.02390         3.80959
   H       -2.10667        -2.57911         3.02840
   H        1.91430        -5.34529         5.12495
   H        1.71702        -7.65315         6.01193
   H        0.69787        -8.11666         8.25425
   H       -1.19679        -6.65535         8.83614
   H       -2.99535        -4.76172         9.06733
   H       -4.50634        -2.87239         8.74222
   H        2.75144        -5.80893         8.25113
   H        4.05346        -7.97227         6.52075
   H        7.99723        -4.56682        13.55694
   H        9.91698        -5.97832        12.28867
   H        6.10415        -8.70073         6.11461
   H        8.87417        -8.44213         7.38838
   H        7.93563        -9.71238         4.75993
   H       13.51146       -10.21405         7.64272
   H       15.43290       -10.71788         6.18859
   H       15.10113       -11.28255         3.82156
   H       12.84979       -11.34275         2.84493
*
