116
 SCF done       -208.738250530174          0.000504496954
C         -18.07987988348708   -1.31785518435263   -8.55495590692641
C         -19.37144732620719   -1.52687022611012   -8.09556644075807
C         -19.60706140323059   -2.09288876789651   -6.85012013870077
C         -18.55633412806839   -2.47247545943717   -6.02872658138082
C         -17.26137689916949   -2.26754463684483   -6.47595293076585
C         -17.01848850399268   -1.68474848723755   -7.74200554342223
C         -15.58050623695667   -1.57424625782278   -7.94545436357678
C         -14.94977265379012   -1.19905342972741   -9.09894429794980
C         -15.62540250538717   -0.84124215695884  -10.28629890350113
N         -16.11033415537366   -0.54212143471684  -11.28233107990107
C         -13.55165163852874   -1.16046205928372   -9.29754748124490
N         -12.43318341317152   -1.10844190799880   -9.55057664189138
C         -14.95350784384160   -1.94845603024482   -6.68059077277611
C         -15.98190527187280   -2.58370862018095   -5.86303694148939
C         -15.75811027719617   -3.49506945058298   -4.86801306720131
C         -14.47953977167878   -3.99926227719064   -4.54113982985323
N         -13.47689268360038   -4.50377988475738   -4.30241655323718
C         -16.78907582377050   -4.12616002125016   -4.14008679468139
N         -17.59606723597582   -4.65088406783734   -3.51610111414733
C         -13.68327288109002   -1.62724553734505   -6.31127678691977
C         -13.14711524432596   -1.62553163846844   -4.99797359869584
C         -13.82676160563964   -1.36961845068172   -3.72248694375889
N         -13.02965179372339   -1.33580486154305   -2.69376135249042
C         -11.78142148256190   -1.58225474748056   -3.18036945723961
C         -11.82221211175600   -1.73446694773447   -4.63103855744367
C         -10.50678962490647   -2.01139776665449   -5.14985697747500
S         -10.18778490183100   -2.36754868752918   -6.72608093915469
C          -9.64790008947387   -1.96088256104448   -3.99571919285384
C         -10.46671331880838   -1.72258882034573   -2.79425464446280
N          -9.69432349799467   -1.71826443028238   -1.67439392233647
C          -8.48213689971895   -1.95891951175911   -2.08642756173796
C          -8.35153045407641   -2.12431718634667   -3.53533419289047
C          -7.12929719339251   -2.35187566332322   -4.24819279702046
C          -7.07834327201299   -2.08507228154984   -5.60675917960183
C          -5.91264899751089   -2.34778294893759   -6.33114284794996
C          -5.65721699644621   -2.23152421313300   -7.69826412512345
C          -6.63999266676835   -1.81389452365220   -8.72882525129730
C          -6.11721188977740   -0.68850638166215   -9.64870541408185
N          -7.19739037535410    0.23850280469333   -9.90684026567283
C          -7.10836116799984   -3.03779824689895   -9.54082223037041
N          -7.55456121130974   -4.07890231057612   -8.63458129144143
C          -4.29958205239498   -2.67720557081022   -7.89857924915330
C          -3.56446504455131   -2.81243197825562   -9.01837812785637
C          -2.16364995945031   -3.31934771435140   -8.97583158108261
C          -1.65289395054092   -3.63077404728235   -7.60977555778261
C          -2.40903383349303   -3.51316131330572   -6.50055002542657
C          -3.74237829431823   -3.05010854756629   -6.59034322065146
C          -4.73847997338625   -2.85720592550082   -5.64645621266890
C          -4.80053937362866   -3.08081522960095   -4.25340264840204
C          -5.96049042457406   -2.84130078751038   -3.58284336646840
C          -1.30362288317190   -2.36011285594163   -9.76136449129270
C          -0.30185991773688   -1.63956773221330   -9.25087543837695
C           0.50988871095354   -0.74574697330621  -10.02155926744851
C           0.28289175009682   -0.26803223675450  -11.38930957938754
N           1.21721902528696    0.51457808771870  -11.84924908168784
C           2.13804663347782    0.61198112187714  -10.85032533780013
C           1.69682929784794   -0.15177898344335   -9.66931322837580
C           2.68712527254870   -0.06412457226436   -8.62785189946820
S           2.55548658063246   -0.60044929321793   -7.07507364815748
C           3.77366859343740    0.66097874514129   -9.23112095606824
C           3.37903928380877    1.12618029205160  -10.57842444127347
N           4.37004562798668    1.86626665378084  -11.13937367073896
C           5.33546923739178    1.88505083479907  -10.26894975960890
C           5.06301307514236    1.11620974914153   -9.04848608058417
C           5.98469151722121    1.00069639756004   -7.97364813420998
C           6.09280952918621   -0.01147840855990   -7.07198166048886
C           6.79155061717647    0.09418053609118   -5.78982845725778
C           7.77287136601176    0.98541924057557   -5.45846693832241
C           8.33066005618708    1.94140757670167   -6.33555942100168
N           8.83369036316414    2.73210812212278   -6.99829165067019
C           8.40551662972708    1.02962658301217   -4.19647866672163
N           8.96023652616671    1.11629085987311   -3.19602910769373
C           6.24818020954135   -0.95191723175746   -4.93693816678719
C           5.40917916343065   -1.78588215519776   -5.71129097419543
C           4.74935149142522   -2.85691908265782   -5.13272881828759
C           4.93211944732376   -3.09150396809183   -3.77863873566509
C           5.76180389314474   -2.27907788447700   -3.01763363324526
C           6.42761691996725   -1.20376889587214   -3.58532499750405
C           5.43131616107935   -1.31444360341902   -7.08667448952903
C           5.13686741416439   -2.05960700485881   -8.19583520521745
C           4.51264660716741   -3.32332855054353   -8.14885457263511
N           3.97374803753056   -4.33624472992590   -8.17682119911922
C           5.43468779282701   -1.66812948523628   -9.51661832687536
N           5.69356592763164   -1.42773283283508  -10.60892586872404
H         -17.91599841818396   -0.87269527134187   -9.52257942611121
H         -20.20527454085453   -1.24056482366159   -8.71800804811778
H         -20.62173520267379   -2.23940818497831   -6.51322441008891
H         -18.75006194723479   -2.90551708050589   -5.06064082778852
H         -13.00101279789551   -1.27582703425857   -7.07587887239542
H         -14.87406101794747   -1.15059367464173   -3.60499441756103
H          -7.67226289525244   -1.98404364595291   -1.37855521724531
H          -7.93898298887989   -1.66939710043312   -6.10322193298652
H          -7.51673713407319   -1.40804877897650   -8.21581294722691
H          -5.68524443844586   -1.12634378384611  -10.56484602234145
H          -5.32609403186238   -0.13491772953866   -9.13404215351733
H          -7.94949684070876   -0.20635456828877  -10.42035444182527
H          -6.88103487157896    1.04476083039784  -10.43113878902080
H          -6.27075491601807   -3.44273685532558  -10.11847951809066
H          -7.88559342876816   -2.70519308075014  -10.24963302712439
H          -8.31531772072143   -3.73457668873015   -8.05665099855541
H          -7.90567972942016   -4.87398103239540   -9.15711835438766
H          -3.95309818944969   -2.54778254764632   -9.99087157142292
H          -2.15318580138528   -4.26407085781308   -9.54907231728420
H          -0.63724136745846   -3.99205014098121   -7.55632698495146
H          -2.00763616704212   -3.77176861773101   -5.53191891106664
H          -3.93243344120283   -3.45643941058297   -3.73238672779443
H          -6.01610585071712   -3.04006443410071   -2.52386949533598
H          -1.56170344622248   -2.27454652753198  -10.80785283284760
H          -0.03271699929834   -1.73154601755166   -8.20735072499009
H          -0.57372601891820   -0.49514234465410  -11.99898908947759
H           6.25298731008166    2.41050935148474  -10.46755682277785
H           6.63476123151798    1.85853904159239   -7.85338601037255
H           4.09374617924279   -3.48497320026387   -5.71346263670427
H           4.41888031569266   -3.91745100873288   -3.31029152407686
H           5.88900153593657   -2.48236668838394   -1.96530372875513
H           7.06173191088080   -0.57821002729045   -2.97863241047364
