# ORCA input file
# SCF done       -264.519811752152          0.000772949793
! CAM-B3LYP def2-SVP def2/J RIJCOSX Grid4 TightSCF
%maxcore 5000
%tddft
    Mode sTDDFT
    Ethresh 5.0
    maxcore 5000
end

%pal
  nprocs 6
  end
* xyz 0 1
   C       -5.35906         0.64756         1.73869
   C       -5.29686         1.97124         2.14235
   C       -5.15778         2.24652         3.50431
   C       -5.09528         3.59415         3.93787
   N       -5.04754         4.68466         4.28285
   C       -5.07939         1.21191         4.45607
   C       -4.93767         1.52156         5.82982
   N       -4.82532         1.74825         6.94676
   C       -5.14284        -0.12061         4.04542
   C       -5.28282        -0.37836         2.69902
   C       -5.38152        -1.69213         2.02463
   O       -5.32586        -2.77510         2.57066
   C       -5.55049        -1.39654         0.59509
   C       -5.50170         0.04137         0.41332
   C       -5.55438         0.73973        -0.76546
   C       -5.49550         2.14731        -0.85525
   N       -5.44984         3.28535        -0.99561
   C       -5.65797         0.17770        -2.05590
   N       -5.73419        -0.19395        -3.13997
   C       -5.75121        -2.31788        -0.40124
   C       -5.83644        -3.71923        -0.34865
   C       -6.06517        -4.47432        -1.49228
   C       -6.13492        -5.85050        -1.26698
   C       -6.35549        -6.88302        -2.22101
   C       -6.39316        -6.61625        -3.63740
   C       -5.62296        -5.74172        -4.36188
   C       -5.87765        -5.78813        -5.74324
   C       -6.84668        -6.68461        -6.08829
   S       -7.46103        -7.50326        -4.69474
   C       -7.37722        -7.01282        -7.43428
   C       -6.51639        -8.15922        -1.70659
   C       -6.39142        -8.46824        -0.32630
   C       -6.07003        -7.45595         0.61251
   C       -5.99289        -6.15800         0.11506
   S       -5.70148        -4.73317         1.07125
   C       -5.82166        -7.77856         1.99594
   C       -5.17648        -8.88055         2.49820
   C       -5.08781        -8.88212         3.90029
   C       -5.66789        -7.79299         4.48170
   S       -6.32533        -6.72442         3.28963
   C       -5.77126        -7.46433         5.92620
   C       -6.65076        -9.82664        -0.07411
   C       -6.91975       -10.55886        -1.21000
   S       -6.87273        -9.58580        -2.65304
   C       -7.22860       -11.94449        -1.28548
   C       -7.49389       -12.54617        -2.53598
   C       -7.83651       -13.93905        -2.69496
   N       -8.06938       -14.41018        -3.92805
   C       -7.99742       -13.60756        -4.96477
   C       -7.66612       -12.22591        -4.80692
   N       -7.42152       -11.75245        -3.60889
   C       -7.59451       -11.34663        -5.91404
   N       -7.54754       -10.64840        -6.82144
   C       -8.24351       -14.14347        -6.25157
   N       -8.42784       -14.55471        -7.30540
   C       -7.93513       -14.79639        -1.57185
   C       -7.66109       -14.19433        -0.32305
   C       -7.30830       -12.80267        -0.16862
   N       -7.09381       -12.48953         1.10967
   S       -7.31508       -13.79547         2.02044
   N       -7.69056       -14.82684         0.84905
   C       -8.30528       -16.17001        -1.63995
   C       -8.56833       -16.92396        -2.76046
   C       -8.93808       -18.25079        -2.48504
   C       -9.30037       -19.25280        -3.41977
   C       -9.40883       -18.99265        -4.83455
   C       -9.10418       -19.83466        -5.87405
   C       -9.36871       -19.28101        -7.13738
   C       -9.89624       -18.02355        -7.08429
   S      -10.05522       -17.48944        -5.44761
   C      -10.29505       -17.13831        -8.20411
   C       -9.56910       -20.50952        -2.88602
   C       -9.54344       -20.78485        -1.49247
   C       -9.24437       -19.76282        -0.55544
   C       -8.91778       -18.52448        -1.09098
   S       -8.48311       -17.10517        -0.17421
   C       -9.34072       -19.97149         0.87031
   C       -8.59747       -19.40728         1.87343
   C       -9.02267       -19.77486         3.16227
   C      -10.10397       -20.60646         3.16668
   S      -10.60740       -20.96401         1.55256
   C      -10.82602       -21.18802         4.32853
   C       -9.85898       -22.12430        -1.21821
   C      -10.17455       -22.86906        -2.33268
   S      -10.02722       -21.91982        -3.79548
   C      -10.49240       -24.24220        -2.41119
   C      -10.90320       -25.07547        -1.41079
   C      -10.73940       -26.54222        -1.57837
   O      -10.49241       -27.14154        -2.59720
   C      -10.88388       -27.10355        -0.21238
   C      -10.69787       -28.40275         0.20877
   C      -10.84886       -28.68232         1.56865
   C      -11.17886       -27.65281         2.47063
   C      -11.37923       -26.34263         2.03099
   C      -11.23407       -26.07262         0.68167
   C      -11.40305       -24.83141        -0.07604
   C      -12.13907       -23.75381         0.34282
   C      -12.53026       -22.70509        -0.51658
   N      -12.91096       -21.86159        -1.19414
   C      -12.64163       -23.60254         1.64996
   N      -13.03061       -23.42329         2.71522
   C      -11.30355       -27.94725         3.85097
   N      -11.40181       -28.16928         4.96978
   C      -10.65979       -30.00210         2.04455
   N      -10.50473       -31.07551         2.41200
   H       -5.35423         2.79248         1.44620
   H       -5.08574        -0.92737         4.76028
   H       -5.87898        -1.92746        -1.40372
   H       -6.20637        -4.01785        -2.45575
   H       -4.85473        -5.12945        -3.92432
   H       -5.35483        -5.18109        -6.46074
   H       -8.41065        -6.67914        -7.53073
   H       -7.36187        -8.09042        -7.59307
   H       -6.78040        -6.52653        -8.20186
   H       -4.73360        -9.63763         1.87674
   H       -4.60698        -9.66317         4.46219
   H       -5.29251        -8.23832         6.52110
   H       -6.81499        -7.38229         6.22852
   H       -5.29041        -6.50947         6.13619
   H       -6.67814       -10.27066         0.90342
   H       -8.48025       -16.51226        -3.74674
   H       -8.65901       -20.80379        -5.73894
   H       -9.17716       -19.79775        -8.06072
   H      -10.12629       -17.63888        -9.15410
   H       -9.71536       -16.21474        -8.17903
   H      -11.34826       -16.86933        -8.12690
   H       -7.74641       -18.77667         1.69220
   H       -8.54586       -19.43086         4.06286
   H      -10.15154       -21.79700         4.93069
   H      -11.65470       -21.80912         3.99580
   H      -11.21779       -20.39507         4.96520
   H       -9.79195       -22.55739        -0.23725
   H      -10.32013       -24.72282        -3.36896
   H      -10.43940       -29.18147        -0.49256
   H      -11.62771       -25.57621         2.74817
*
