# ORCA input file
# SCF done       -245.107343265281          0.000624126399
! CAM-B3LYP def2-SVP def2/J RIJCOSX Grid4 TightSCF
%maxcore 5000
%tddft
    Mode sTDDFT
    Ethresh 5.0
    maxcore 5000
end

%pal
  nprocs 6
  end
* xyz 0 1
   C       -3.13223         0.18209         1.88034
   C       -2.65326         1.38122         2.38069
   C       -2.42583         1.48563         3.75471
   C       -1.92699         2.70149         4.28562
   N       -1.52163         3.68530         4.70733
   C       -2.67774         0.40597         4.62276
   C       -2.43496         0.54301         6.01103
   N       -2.24334         0.63345         7.13620
   C       -3.16049        -0.80120         4.11542
   C       -3.37553        -0.89293         2.75679
   C       -3.85802        -2.05411         1.98267
   O       -4.17965        -3.13609         2.43756
   C       -3.85214        -1.63605         0.57760
   C       -3.45997        -0.23899         0.51634
   C       -3.43261         0.57197        -0.58551
   C       -3.05143         1.93206        -0.55819
   N       -2.75002         3.03800        -0.59839
   C       -3.80079         0.18908        -1.89451
   N       -4.09482        -0.04332        -2.97915
   C       -4.09551        -2.45342        -0.49743
   C       -4.45595        -3.80871        -0.54389
   C       -4.56656        -4.49710        -1.76039
   C       -4.91780        -5.82071        -1.58608
   C       -5.10363        -6.15120        -0.22033
   S       -4.81779        -4.84887         0.83413
   C       -5.44444        -7.52385        -0.13510
   C       -5.46582        -8.05841        -1.44315
   C       -5.15190        -7.00596        -2.39638
   C       -5.09939        -7.11102        -3.75425
   C       -5.37195        -8.32884        -4.41420
   N       -5.60225        -9.32101        -4.93968
   C       -4.77788        -6.01361        -4.58179
   N       -4.51276        -5.12151        -5.25057
   C       -5.75983        -9.41030        -1.45081
   C       -5.99030        -9.91017        -0.16744
   S       -5.84255        -8.66476         1.06649
   C       -6.26492       -11.27538         0.08624
   C       -6.69396       -11.95480         1.22614
   C       -6.94130       -11.31412         2.49765
   O       -6.69396       -10.14031         2.73596
   C       -7.51428       -12.20208         3.52317
   C       -7.70569       -13.59160         3.30823
   C       -8.24233       -14.21070         4.41381
   S       -8.52269       -13.12608         5.71465
   C       -7.91270       -11.81941         4.78320
   C       -7.87438       -10.44394         5.37696
   F       -6.63220        -9.97199         5.50604
   F       -8.57573        -9.55803         4.66410
   F       -8.40931       -10.44795         6.61003
   C       -8.59080       -15.65938         4.57390
   F       -9.50336       -16.06960         3.68919
   F       -7.52780       -16.46067         4.46442
   F       -9.11326       -15.88654         5.79129
   C       -7.36010       -14.25197         2.03843
   O       -7.50623       -15.45764         1.88720
   C       -6.86828       -13.35965         1.01519
   C       -6.53154       -13.76897        -0.27626
   S       -6.06211       -12.39114        -1.24011
   C       -6.47819       -15.04054        -0.89382
   C       -6.02361       -15.22580        -2.20197
   C       -6.01106       -16.55782        -2.57227
   C       -6.47484       -17.40376        -1.53935
   S       -6.91476       -16.56231        -0.12398
   C       -6.41105       -18.74036        -2.00761
   C       -5.90176       -18.73565        -3.32438
   C       -5.64621       -17.36411        -3.72632
   C       -5.18194       -16.93910        -4.93586
   C       -4.89620       -17.85709        -5.96885
   N       -4.67018       -18.62688        -6.78795
   C       -4.95693       -15.57361        -5.21173
   N       -4.76332       -14.46273        -5.41613
   C       -5.80222       -20.00576        -3.87183
   C       -6.23971       -20.98985        -2.99356
   S       -6.75081       -20.31009        -1.45206
   C       -6.25497       -22.38898        -3.16864
   C       -6.14546       -23.11427        -4.31824
   C       -5.74075       -24.54455        -4.21533
   O       -5.70608       -25.21847        -3.21487
   C       -5.33887       -24.93056        -5.58712
   C       -4.75814       -26.10552        -6.01527
   C       -4.42386       -26.21922        -7.36592
   C       -4.67284       -25.15167        -8.25013
   C       -5.27142       -23.97008        -7.80821
   C       -5.61087       -23.86728        -6.47046
   C       -6.25805       -22.78607        -5.72371
   C       -7.04261       -21.81556        -6.28709
   C       -7.84140       -20.92466        -5.54229
   N       -8.51908       -20.19786        -4.96856
   C       -7.21918       -21.65617        -7.67933
   N       -7.39907       -21.49489        -8.80002
   C       -4.30408       -25.27919        -9.61288
   N       -4.00503       -25.37601       -10.71346
   C       -3.82245       -27.40801        -7.84607
   N       -3.33498       -28.37638        -8.21413
   H       -2.44535         2.23041         1.74974
   H       -3.35708        -1.63996         4.76580
   H       -3.97270        -2.01619        -1.48119
   H       -4.38450        -4.02079        -2.70767
   H       -5.81768       -10.02428        -2.33250
   H       -5.71218       -14.41007        -2.83080
   H       -5.38607       -20.22260        -4.83845
   H       -6.28261       -22.98413        -2.26060
   H       -4.56492       -26.91273        -5.32522
   H       -5.43978       -23.16754        -8.50899
*
