# ORCA input file
# SCF done       -279.334351178585          0.000657846072
! CAM-B3LYP def2-SVP def2/J RIJCOSX Grid4 TightSCF
%maxcore 5000
%tddft
    Mode sTDDFT
    Ethresh 5.0
    maxcore 5000
end

%pal
  nprocs 6
  end
* xyz 0 1
   C       18.45391        -9.10214        13.93571
   C       19.08624       -10.31547        13.90698
   C       18.97252       -11.14703        12.78287
   C       18.22910       -10.75425        11.70338
   C       17.56265        -9.51212        11.70016
   C       16.78347        -9.10688        10.59206
   C       16.14548        -7.89625        10.62586
   C       16.28276        -7.04716        11.76301
   C       17.02304        -7.41626        12.84874
   C       17.68000        -8.66738        12.84183
   C       15.54230        -5.79563        11.52822
   O       15.38819        -4.86391        12.28347
   C       15.06363        -5.88317        10.11628
   C       15.25697        -7.24765         9.66680
   C       14.56217        -7.89461         8.67810
   C       13.50599        -7.31146         7.94904
   N       12.61896        -6.89498         7.35129
   C       14.77558        -9.23939         8.31301
   N       14.92530       -10.31801         7.94937
   C       14.68334        -4.73811         9.48946
   C       14.54821        -4.48094         8.10240
   C       15.05313        -5.18778         7.04091
   C       14.73769        -4.63996         5.78396
   C       15.01256        -5.19398         4.51451
   C       15.76327        -6.42322         4.37479
   C       16.87440        -6.82692         5.06288
   C       17.31619        -8.10707         4.67150
   C       16.56159        -8.69036         3.69315
   S       15.26983        -7.64196         3.23317
   C       16.73270       -10.01609         3.04975
  Cl       18.69203        -8.85982         5.38318
   C       14.49256        -4.51866         3.41903
   C       13.74895        -3.31343         3.53370
   C       13.45021        -2.77453         4.80601
   C       13.96556        -3.45399         5.90237
   S       13.69191        -3.04670         7.57034
   C       12.62539        -1.59267         4.93807
   C       11.49887        -1.27286         4.23424
   C       10.95095        -0.03114         4.61988
   C       11.64320         0.60979         5.60654
   S       13.00569        -0.34220         6.09049
   C       11.35594         1.91927         6.24366
  Cl        9.52825         0.60987         3.89045
   C       13.41883        -2.78662         2.26961
   C       13.85376        -3.56981         1.22827
   S       14.71143        -4.99631         1.75680
   C       13.66688        -3.36757        -0.15423
   C       14.07637        -4.25170        -1.15572
   C       13.72314        -3.81555        -2.47890
   N       14.02961        -4.56103        -3.54357
   C       14.65404        -5.69711        -3.32109
   C       14.95603        -6.52799        -4.51193
   O       14.59920        -6.21988        -5.63078
   C       15.70584        -7.76377        -4.23280
   C       16.04919        -8.15852        -3.00207
   C       15.72415        -7.40684        -1.77643
   O       16.02149        -7.81364        -0.67237
   C       15.01136        -6.12521        -2.00099
   N       14.72105        -5.39945        -0.94390
   C       13.04620        -2.58915        -2.47974
   S       12.85515        -2.00755        -0.85611
   C       12.55584        -1.90320        -3.61086
   C       12.66170        -2.33042        -4.91141
   C       12.06326        -1.45504        -5.83680
   C       12.01331        -1.60505        -7.24154
   C       12.74657        -2.66925        -7.88789
   C       13.99328        -3.13504        -7.56953
   C       14.40483        -4.19859        -8.39652
   C       13.48659        -4.56576        -9.34003
   S       12.08347        -3.56116        -9.23027
   C       13.58838        -5.63677       -10.36190
  Cl       15.93068        -4.96107        -8.21894
   C       11.23717        -0.67937        -7.92976
   C       10.59126         0.41268        -7.29068
   C       10.73632         0.62641        -5.89791
   C       11.44241        -0.34522        -5.20228
   S       11.70018        -0.38000        -3.47793
   C       10.19184         1.80883        -5.26964
   C       10.11076         3.07418        -5.78426
   C        9.52618         3.98786        -4.88300
   C        9.15585         3.44795        -3.68455
   S        9.54275         1.76180        -3.65005
   C        8.51242         4.11141        -2.52323
  Cl        9.30449         5.64726        -5.27842
   C        9.83296         1.17971        -8.19441
   C        9.92747         0.75851        -9.49739
   S       10.93713        -0.67404        -9.64114
   C        9.29512         1.25446       -10.66281
   C        8.78250         2.50178       -10.87550
   C        8.03486         2.89834       -12.05795
   C        7.44901         2.05817       -12.96837
   C        6.70758         2.50024       -14.08415
   N        6.09810         2.79531       -15.01122
   C        7.46339         0.64844       -12.90742
   N        7.40801        -0.49859       -12.91774
   C        7.92713         4.35150       -12.05608
   C        8.53650         4.84601       -10.86864
   C        8.57774         6.17906       -10.57671
   C        7.99714         7.09842       -11.47827
   C        7.99986         8.48461       -11.22768
   C        7.43279         9.35689       -12.11677
   C        6.83816         8.88075       -13.29478
   C        6.81884         7.54000       -13.56797
   C        7.39236         6.61330       -12.67384
   C        7.36781         5.22663       -12.94932
   C        9.06499         3.72432       -10.07683
   O        9.66157         3.81529        -9.02397
   H       18.53813        -8.45731        14.79826
   H       19.67755       -10.64078        14.74981
   H       19.47702       -12.10160        12.77679
   H       18.13635       -11.39205        10.83664
   H       16.71951        -9.76120         9.73656
   H       17.10692        -6.76185        13.70363
   H       14.52767        -3.88803        10.14681
   H       15.64915        -6.07269         7.15784
   H       17.39981        -6.22057         5.77801
   H       17.73204       -10.39787         3.24557
   H       16.58033        -9.93155         1.97553
   H       16.00620       -10.72816         3.44268
   H       11.04341        -1.91472         3.50328
   H       12.22538         2.57263         6.18709
   H       11.10526         1.78586         7.29578
   H       10.51859         2.39635         5.74053
   H       12.90020        -1.85792         2.11529
   H       15.95875        -8.35370        -5.10361
   H       16.59120        -9.08080        -2.84054
   H       13.12509        -3.26638        -5.16255
   H       14.61718        -2.71452        -6.80326
   H       13.79678        -5.21101       -11.34418
   H       12.65561        -6.19326       -10.42793
   H       14.39574        -6.31623       -10.09984
   H       10.47629         3.36630        -6.75135
   H        8.44735         5.18167        -2.70276
   H        9.08682         3.93501        -1.61500
   H        7.50784         3.71916        -2.36514
   H        9.19157         1.98217        -7.88933
   H        9.25180         0.54589       -11.48157
   H        9.04338         6.52670        -9.66636
   H        8.45909         8.84495       -10.31875
   H        7.43932        10.41804       -11.91734
   H        6.39449         9.58224       -13.98527
   H        6.36062         7.16873       -14.47289
   H        6.90824         4.89265       -13.86589
*
