# ORCA input file
# SCF done       -196.763920454548          0.000913505000
! CAM-B3LYP def2-SVP def2/J RIJCOSX Grid4 TightSCF
%maxcore 5000
%tddft
    Mode sTDDFT
    Ethresh 5.0
    maxcore 5000
end

%pal
  nprocs 6
  end
* xyz 0 1
   C       -6.86644        -2.40709         1.17877
   C       -7.23311        -3.23745         0.15383
   C       -7.13652        -4.64459         0.20179
   N       -7.08696        -5.79100         0.18513
   C       -7.74480        -2.81443        -1.09188
   N       -8.15628        -2.55272        -2.13126
   C       -6.28551        -2.82525         2.44760
   C       -5.97217        -1.67355         3.21007
   C       -5.41154        -1.74291         4.46243
   C       -5.13887        -3.01009         4.98667
   C       -5.45564        -4.15666         4.21840
   C       -6.02726        -4.08666         2.95465
   S       -5.04421        -5.62122         5.05832
   C       -4.46030        -4.68693         6.40995
   C       -4.56642        -3.34707         6.24345
  Br       -3.76733        -5.56766         7.91306
   C       -6.36675        -0.46124         2.46755
   O       -6.34428         0.67248         2.88837
   C       -6.92169        -0.95347         1.17355
   C       -7.52095        -0.16410         0.24981
   C       -7.42234         1.26988         0.22340
   C       -8.52073         2.07579        -0.06932
   C       -8.46946         3.49205        -0.04685
   N       -9.67270         4.09287        -0.26791
   C      -10.59832         3.24653        -0.47355
   S      -10.14128         1.55723        -0.40500
   C       -7.27168         4.16452         0.23542
   C       -6.15967         3.36259         0.47219
   C       -6.21266         1.94629         0.45661
   N       -5.00812         1.33741         0.62465
   C       -4.07024         2.18707         0.78376
   S       -4.52269         3.86809         0.74659
   C       -7.23478         5.61784         0.28890
   C       -7.85291         6.40351        -0.69876
   C       -7.96726         7.83013        -0.56054
   N       -8.55725         8.55731        -1.53790
   C       -9.06606         7.92556        -2.55054
   C       -8.94448         6.52044        -2.69203
   N       -8.32549         5.79581        -1.81168
   C       -7.45465         8.49965         0.56208
   C       -6.75878         7.72999         1.50040
   C       -6.65428         6.29387         1.36758
   N       -6.02529         5.74937         2.41788
   S       -5.60841         6.90790         3.43524
   N       -6.19630         8.16059         2.63781
   C       -7.72334         9.90827         0.80638
   C       -6.74672        10.80796         1.21847
   C       -7.02957        12.15332         1.55830
   N       -5.93405        12.88216         1.90991
   C       -4.86460        12.18435         1.85350
   S       -5.04104        10.52418         1.37327
   C       -8.34287        12.65645         1.50069
   C       -9.30517        11.76972         1.02046
   C       -9.02370        10.41770         0.69813
   N      -10.12166         9.69141         0.34804
   C      -11.18198        10.39206         0.36667
   S      -11.00237        12.06726         0.84048
   C       -8.68519        13.99490         1.89199
   C       -8.11324        14.74166         2.86320
   C       -7.14726        14.40508         3.89318
   C       -7.01611        13.19528         4.51861
   C       -6.07329        12.93125         5.53223
   N       -5.30294        12.65590         6.33766
   C       -7.84864        12.08605         4.26306
   N       -8.53027        11.17162         4.13321
   C       -6.51898        15.64987         4.31282
   C       -7.24431        16.73691         3.76049
   C       -8.32590        16.21738         2.89921
   O       -9.17424        16.84380         2.31045
   C       -6.92066        18.04636         4.02282
   C       -5.82436        18.29430         4.85548
   C       -5.09605        17.20177         5.38598
   C       -5.42877        15.87753         5.13108
   S       -3.77365        17.73675         6.37737
   C       -4.21252        19.39727         6.07458
   C       -5.29273        19.54575         5.27160
  Br       -3.20375        20.77562         6.84767
   H       -5.18989        -0.84572         5.01876
   H       -6.25582        -4.98922         2.41300
   H       -4.25590        -2.62469         6.97607
   H       -8.15369        -0.60284        -0.51241
   H      -11.61739         3.51441        -0.67250
   H       -3.04495         1.90925         0.93381
   H       -9.53156         8.52850        -3.31866
   H       -9.30890         6.01154        -3.57430
   H       -3.89640        12.57926         2.09380
   H      -12.15277        10.00952         0.11908
   H       -9.47385        14.47489         1.32025
   H       -7.49430        18.85548         3.59872
   H       -4.84562        15.07566         5.55286
   H       -5.69971        20.49781         4.98369
*
