# ORCA input file
# SCF done       -200.153356962205          0.000554610650
! CAM-B3LYP def2-SVP def2/J RIJCOSX Grid4 TightSCF
%maxcore 5000
%tddft
    Mode sTDDFT
    Ethresh 5.0
    maxcore 5000
end

%pal
  nprocs 6
  end
* xyz 0 1
   C        6.59790        -4.57092       -10.96080
   C        6.60801        -4.70421       -12.31383
   S        8.00546        -5.57428       -12.83658
   C        8.60219        -5.77020       -11.20810
   C        9.86187        -6.48675       -10.91172
   C        7.73693        -5.17928       -10.33818
   C        7.65567        -4.99132        -8.89443
   O        8.45442        -5.36533        -8.05123
   C        6.39812        -4.25438        -8.65827
   C        5.75638        -3.98467        -9.93684
   C        4.59003        -3.31006       -10.18695
   C        4.11591        -3.14265       -11.50516
   N        3.71758        -2.99998       -12.57167
   C        3.74796        -2.71759        -9.22623
   N        3.02066        -2.21235        -8.49489
   C        5.89447        -3.91185        -7.43195
   C        6.40915        -4.12846        -6.14175
   C        5.69882        -3.74771        -4.99629
   C        6.36978        -4.06133        -3.83023
   C        7.62115        -4.67642        -4.08085
   S        7.95078        -4.88189        -5.73937
   C        8.22298        -4.97805        -2.83675
   C        7.35283        -4.56615        -1.80193
   C        6.16831        -3.96577        -2.39343
   C        5.10176        -3.42883        -1.73474
   C        3.99925        -2.86660        -2.41292
   N        3.09882        -2.40940        -2.95498
   C        5.03377        -3.40073        -0.32576
   N        4.98027        -3.37955         0.81945
   C        7.84597        -4.85459        -0.53721
   C        9.08943        -5.47261        -0.60574
   S        9.66121        -5.69285        -2.25322
   C        9.88603        -5.93738         0.45330
   C       11.16280        -6.49392         0.31345
   C       11.73890        -6.92971         1.55431
   N       12.92764        -7.53715         1.57368
   C       13.54515        -7.68074         0.42150
   C       14.84024        -8.41032         0.44084
   O       15.24377        -8.99586         1.42100
   C       15.58005        -8.39211        -0.83429
   C       15.08298        -7.89449        -1.97124
   C       13.74106        -7.29664        -2.08402
   O       13.28421        -6.91511        -3.14057
   C       12.99562        -7.18839        -0.80472
   N       11.81081        -6.61753        -0.84376
   C       10.89637        -6.69540         2.65134
   S        9.41661        -5.94652         2.12264
   C       11.14585        -7.04757         3.99036
   C       12.34947        -7.52048         4.50449
   C       12.24136        -7.83184         5.85246
   C       10.94654        -7.61308         6.37209
   S        9.87489        -6.97941         5.20458
   C       10.92163        -8.03073         7.72122
   C       12.20217        -8.51802         8.06020
   C       13.08267        -8.36256         6.91563
   C       14.42681        -8.58535         6.88860
   C       15.23575        -8.28039         5.77171
   N       15.91593        -8.00320         4.89233
   C       15.10306        -9.09222         8.01967
   N       15.63357        -9.51494         8.94404
   C       12.28130        -8.96137         9.37296
   C       11.07844        -8.81737        10.05053
   S        9.82426        -8.13859         9.01867
   C       10.75081        -9.20043        11.36950
   C       11.57572        -9.47104        12.41838
   C       11.02248       -10.27948        13.55432
   O        9.85628       -10.54387        13.74095
   C       12.19776       -10.69971        14.31445
   C       12.44295       -11.50767        15.38259
   S       14.15664       -11.52323        15.71477
   C       14.50704       -10.43406        14.42151
   C       13.37089       -10.08402        13.76344
   C       12.98346        -9.21825        12.66646
   C       13.77068        -8.21142        12.16874
   C       15.09986        -8.03664        12.60836
   N       16.17911        -7.88323        12.96483
   C       13.33655        -7.22151        11.27054
   N       13.01067        -6.38402        10.55514
   C       11.47773       -12.28525        16.19032
   H        5.90261        -4.35993       -13.04328
   H       10.70122        -6.01735       -11.42397
   H        9.80342        -7.52102       -11.25040
   H       10.04066        -6.47053        -9.83889
   H        4.93827        -3.40151        -7.42387
   H        4.73541        -3.27208        -5.05135
   H        7.35372        -4.64164         0.39488
   H       16.56341        -8.84103        -0.79804
   H       15.64916        -7.92173        -2.89254
   H       13.22520        -7.63518         3.89100
   H       13.14841        -9.42045         9.81117
   H        9.69718        -9.37500        11.56788
   H       15.52249       -10.14602        14.23661
   H       10.47376       -12.11901        15.80640
   H       11.51759       -11.98044        17.23562
   H       11.70850       -13.34934        16.14575
*
