120
 SCF done       -189.324698562921          0.000738083805
C          10.54383436545770   -1.23262997408543    2.25111623510668
S           9.71809813480568   -0.02514381048378    1.35536031662564
C           9.33316586116583    0.85081463363448    2.81072773192845
C           9.82126019880162    0.19593553175045    3.92121248879516
C          10.52895383208194   -0.98416056104761    3.58973580248749
C          11.17184545695640   -1.86195474655773    4.62948262443713
C          10.31688730730321   -3.01020945325889    4.84422681448240
N           9.62432322721215   -3.90359202275299    5.01302975077129
C          11.34812388720412   -1.08237293397440    5.93934765711439
C          10.02666294185173   -0.42713279041924    6.32506973621567
C           9.67741515427733    0.69168753671426    5.33405951430169
O          10.52988561901304    1.82336594327073    5.46045280858047
C          10.25980918122008    2.65441438169862    6.55800364375830
C           8.62637867671143    2.08959861086209    2.77661517548829
C           8.18870527524639    2.68826608652135    1.65459511028488
N           7.53873306000982    3.89246384029057    1.66875939181141
C           7.07233951811246    4.57265064133880    0.59605692823035
S           7.20624371790214    3.91994937101470   -1.00315902827157
C           6.41364785640118    5.33563452950103   -1.62883401521156
N           6.21574614430341    5.41005778583832   -3.00304838059619
O           5.66009599899335    6.40198416655772   -3.44750774337305
O           6.61717164214054    4.46737554435693   -3.67112712844481
C           6.07409933779175    6.24089407227201   -0.65738739332748
C           6.44238213884198    5.82843529979824    0.63411514653447
C           6.23703961446873    6.57258837070314    1.84993520960225
C           5.59059261776477    7.74744727505581    1.94818327239737
C           5.39302139519014    8.51324106318800    3.15897378968535
C           4.60961560778953    9.67769885773235    3.09085674024172
C           4.39484010064322   10.43306359307847    4.21837918404408
C           4.99916215050841   10.06728327580149    5.43469646301720
C           5.77529030291130    8.92044999597234    5.51874413479723
C           5.95713143995936    8.15171173011387    4.38906999271165
C           4.70059360999710   11.07360305651405    6.42512672527334
C           3.90585071920699   12.06711340267611    5.82904757422629
C           3.59268284413624   11.70464529651512    4.39086990617225
C           2.07087672456492   11.43989166592702    4.31306600988915
C           1.55621483187979   10.89397714281434    2.98771745286546
C           4.02884545558166   12.80299587223622    3.41031364330621
C           5.50011101903672   13.17007119471969    3.56799486160803
C           3.49787266558352   13.15833436436541    6.55404567098321
C           3.89579292753746   13.29956234374338    7.89657512323445
C           4.68540606404570   12.29046430423277    8.47365527006131
C           5.08449792021041   11.18596142323703    7.75469775547358
C           3.47752662513548   14.46113437849665    8.63084337935133
C           3.93923608596554   14.83306737200770    9.85327224079070
C           3.50962294761881   15.96465826430163   10.56945804190473
C           4.03485037170596   16.32140206193882   11.78627257116792
C           3.67129764703053   17.41360914665189   12.61039550625567
C           4.38469875015904   17.50806814712399   13.76835892033193
C           5.36064752608314   16.50116161903883   13.92495054053436
S           5.33280083708858   15.41463389515564   12.55253815746019
C           6.26150062987356   16.31989237476780   14.95662142686392
C           6.42142871114713   17.07847304950129   16.13626849388038
C           7.42227675400697   16.63340653661640   16.94535887665320
C           8.12272212231888   15.49943503001111   16.45817319189072
S           7.42859922363674   15.01828296682808   14.91544279618121
C           9.17439847252611   14.88729634829333   17.08886847995811
C           9.94321048107806   13.77893998814235   16.67169617677025
C          11.00634022556661   13.23785230823452   17.39945123925495
C          11.55206555184259   12.14751075392478   16.67571300342061
C          12.59727090746480   11.29334494719420   16.94304181479175
C          12.89021251097694   10.29871750152537   15.99300997923336
C          13.85954065663087    9.30862809855710   15.96645470182817
C          13.72371161281889    8.55354060964545   14.75675383760556
C          12.66820095244138    9.08195223014992   14.03892847086112
C          12.11337123749070   10.17798251042822   14.77148344956472
C          11.07410671765635   11.02505896120700   14.50043702834342
C          10.77875395453775   12.02554500683244   15.45228103854055
C           9.81366409365094   13.01174719282173   15.46163211600544
C          14.53317301195708    7.43444228273896   14.33976131621339
C          15.54354822260612    6.90861505395404   15.02687939929231
H          10.99570134491985   -2.05779431465123    1.73708236796878
H          12.13847209961841   -2.23091694521345    4.26577037861703
H          12.10148543399933   -0.30581320173448    5.79155014203761
H          11.68619900050529   -1.75617561793061    6.72882516476551
H          10.09260736860685   -0.01257648098578    7.33184382478640
H           9.22525857464958   -1.16918360780257    6.31778601891948
H           8.63444549894745    1.01013779351650    5.51092031536215
H          10.89043099330157    3.53308390492283    6.43441230377938
H          10.49980332312789    2.17629744891192    7.51403196974925
H           9.20564208189407    2.96115524891066    6.57664736999597
H           8.47132524657890    2.56950419084698    3.73292396006187
H           8.33406051075940    2.24588432607163    0.68012339265795
H           7.40864183771332    4.32553122585577    2.57481433052146
H           5.58363556364213    7.16634527794429   -0.89485979170146
H           6.65141161300032    6.13096333636666    2.74577655976202
H           5.16045135908416    8.18431507482431    1.05751118966979
H           4.19464848665949    9.97088174623080    2.13764628490191
H           6.23838392907656    8.63870500976379    6.45292091952534
H           6.56832835523326    7.26492139328714    4.46006010915940
H           1.56072598569594   12.38045046320165    4.53311676270676
H           1.81360865428048   10.73315074967837    5.10679151118929
H           1.80208622681935   11.55688356001837    2.16217691528989
H           0.47291201164718   10.80171150236397    3.03322290033643
H           1.96942501357861    9.90922177470391    2.78739882535084
H           3.41316825075857   13.68933123776123    3.57764566410555
H           3.85582747893918   12.46180068345230    2.38880906287139
H           5.69859573276777   13.54428658169345    4.56987722987532
H           5.77354483974945   13.94126278812763    2.85139424144740
H           6.13157296671033   12.30087020223823    3.39645958352504
H           2.88675488208310   13.92770058884265    6.10309789834457
H           4.97749629522942   12.37254524239909    9.50873459372523
H           5.68776048872134   10.41994490450366    8.21937408793416
H           2.74520388720574   15.09389456013258    8.14390392272081
H           4.70470576273629   14.24133315946383   10.33771888901244
H           2.72740763554358   16.58528024357870   10.15308722261239
H           2.89078957843807   18.09524796291364   12.32058931653881
H           4.23902584020843   18.27531176103995   14.50803811777840
H           5.79669731224133   17.92604943869229   16.35514910560241
H           7.68834122635133   17.08765288386026   17.88404777342652
H           9.46216505483127   15.32020536506777   18.04017842556141
H          11.35626074941258   13.58978908516885   18.35258063675754
H          13.18056026537624   11.37668907889964   17.84936901487957
H          14.59751083623227    9.13323165991304   16.72760476030065
H          12.31258629797961    8.73535482902077   13.08558678629299
H          10.49030295119333   10.94549827646480   13.59406611901118
H           9.08662913167621   13.18118458406771   14.69000482206503
H          14.26378194361891    7.01165102808498   13.37955327767486
H          15.84808092183491    7.29300871609902   15.98495288410168
H          16.10522577171388    6.07106673160962   14.65087467557842
