128
 SCF done       -219.539007964396          0.000248179336
C         -16.29100091278937    2.92550669406451   16.32867492749030
C         -17.48133492270147    2.21147269199507   16.35058717848539
C         -17.99681043245272    1.63838792864272   15.20067066039109
C         -17.32989553937893    1.75717614476174   13.98703780920088
C         -16.15002607078304    2.46433061011742   13.95300898317289
C         -15.63782369732299    3.04290527803898   15.11800414316305
N         -14.45309511505890    3.70673598074698   14.82693561662381
C         -13.62401674485254    4.36690593822626   15.79723073275029
C         -14.12633615601191    3.59726485596100   13.50928304658439
O         -13.13718221666663    4.07297644199774   12.99502599309492
C         -15.20090640027873    2.74266302492561   12.83096860242595
C         -14.52688947268180    1.46182635150048   12.28492646454264
C         -13.56074861294903    0.94364867752183   13.35316114288455
O         -13.83642058359313    0.56257964102627   14.46836922405477
N         -12.29739549268465    1.02156344600560   12.84319132036829
C         -11.11886940235215    0.70628650585896   13.60189835741604
C         -12.29896894274563    1.50644833095730   11.54348727088499
C         -11.22692252359836    1.73228619575364   10.70949700206615
C         -11.47939109182727    2.21230226193994    9.41788043993881
C         -12.79962153137543    2.42136584576367    9.00881210895122
C         -13.86950971761204    2.20650337447014    9.86298679856231
C         -13.61576723655229    1.74928052145046   11.13639553700683
C         -10.41605177275695    2.50200094661633    8.47565076127999
C          -9.13575949738421    2.71629555378760    8.81006314030007
N          -8.08685971201771    3.00465769631612    7.96151312439973
C          -7.99349646976037    2.92067461791332    6.61488845610217
S          -9.21362263238086    2.19420655357875    5.62420183207986
C          -8.21023354769280    2.42784861974213    4.22325995491231
N          -8.67579231456533    1.99858089787793    2.99220934903877
O          -7.95369774405931    2.17826622639158    2.01650859698280
O          -9.77494529457465    1.46247976896771    2.95528100217641
C          -7.02117770989515    3.04272993627261    4.51570545453251
C          -6.86257145147718    3.34195423261205    5.87882362901564
C          -5.71819850723531    3.98119207210914    6.45709773592279
C          -4.61204406317991    4.32814282711217    5.74619040297447
C          -3.41066576268550    4.91040702760570    6.19734685234959
C          -3.01904060858629    5.41932239261574    7.43945238865394
C          -3.75410271884229    5.68539897355893    8.61517925511628
C          -3.11343043332894    6.12003211497858    9.73629697246585
C          -1.71128875557504    6.30988933992722    9.75236538721468
C          -0.96490116544629    6.12260632407333    8.62993648918457
C          -1.59308450707798    5.70960217814258    7.43214474762641
C          -1.09892358525890    5.43948538356597    6.16316308077536
C          -2.22260632751332    4.97621425660916    5.32962385000277
C          -2.16665520277422    4.72265994863593    4.01812047240880
N           0.14773705791773    5.44538305650234    5.61897433227834
C           1.34464971738569    5.98527115764165    5.94288317906069
S           1.58484909195844    7.32924776213097    7.01375208996151
C           3.25891417937023    7.38693308181742    6.54718753627603
N           4.05657276159729    8.33841341747611    7.16902154833285
O           5.23530960444390    8.39631216442245    6.85432284480570
O           3.50905867835503    9.05834247730954    7.99531901807599
C           3.59775623050164    6.44043054519769    5.61068893328023
C           2.52183248744649    5.61733566370908    5.26227454594645
C           2.58788109593153    4.55325718216160    4.28185954835260
C           1.86097351278655    3.42280484027639    4.33549624047758
C           1.77074455756599    2.42534055735008    3.28477584665142
C           2.74119610459294    2.35952882025941    2.27248346839954
C           2.61995754218666    1.53790865768530    1.17450525798262
C           1.48150556743578    0.75801768077436    1.00934673547678
C           0.52826218786827    0.78035548197063    1.99893951302138
C           0.67779494566273    1.55726172360073    3.15687787053783
N          -0.41900742833663    1.32887070456565    3.98959409656377
C          -0.60663001381742    1.69974784940626    5.36834380821237
C          -1.32984903794478    0.48643877657200    3.40208151911980
O          -2.37518071001094    0.15325321501022    3.91138425931162
C          -0.79150672799736    0.08092066833682    2.04169329557621
C          -1.74684780320065    0.55262787864816    0.92959826815993
C          -2.17839330205849    2.00651297218465    1.14906918555301
O          -1.45615348400064    2.96542719370245    1.33735884360860
N          -3.53515710811269    2.04589810109505    1.10804604384896
C          -4.31462162714109    3.25074068617330    1.17063819416499
C          -4.08453453891288    0.77044997561388    0.99134041784130
C          -5.41224541223567    0.40714277418959    0.98827186604855
C          -5.72920229977451   -0.95205433860532    0.87598642788668
C          -4.69894458409733   -1.88799608427540    0.76603680317384
C          -3.36565726454970   -1.50774798420975    0.77166877954678
C          -3.05726478071115   -0.17025247076079    0.88810403740684
C          -7.14042145939520   -1.32022490855923    0.88268030798261
C          -7.64670033147329   -2.54506680161504    0.80473946642528
H         -15.89214261715097    3.36434135006404   17.22957350073330
H         -18.01171383304411    2.10048836016216   17.28449839771523
H         -18.92390913385271    1.08773334310806   15.24737314629999
H         -17.73149837445316    1.30337795745967   13.09307890731135
H         -13.28135069360825    3.65452167509899   16.55052157240426
H         -14.17375974304086    5.17399579824458   16.28550200850631
H         -12.76599621831946    4.77972826811756   15.26763360245767
H         -15.66091873031615    3.28409985520365   12.00028140452448
H         -15.29784021787829    0.72124246428773   12.05893510011005
H         -11.44505716209192    0.35411344686266   14.57998295250627
H         -10.49632989413661    1.59532617983647   13.72315266558899
H         -10.54205288975992   -0.07733778881453   13.10645007000066
H         -10.22073643996186    1.53123318399389   11.03884955840880
H         -12.98535806484520    2.77917206518668    8.00735154696230
H         -14.87975143294270    2.39293367543394    9.53056836228402
H         -10.73249537698632    2.59790177573793    7.44868595815600
H          -8.82938025548291    2.70427481316194    9.84595863591742
H          -7.23687053582468    3.31279970982415    8.41499200640146
H          -6.30339545239153    3.25961643776873    3.74840652849247
H          -5.74176424278570    4.16719663897875    7.51929733493944
H          -4.61486066825856    4.07666992856884    4.69617025242530
H          -4.82673736212712    5.57671892186692    8.61782830305072
H          -3.67504188033254    6.33104728071546   10.63443739677341
H          -1.23879406337355    6.62736809545248   10.66919495876817
H           0.09939860921038    6.28362399674369    8.65779639742659
H          -1.27232894370267    4.80295278767016    3.42072406613687
H          -3.03523098421449    4.41389907561957    3.46669255223656
H           0.19061537880274    4.96362676607139    4.72046443673462
H           4.59518114951917    6.34410247742239    5.22213589194886
H           3.26899005069944    4.73537630370430    3.46314388424427
H           1.26785760148973    3.24120705656333    5.21649692587783
H           3.62278757508727    2.97350702690351    2.36658616226913
H           3.39936848008000    1.51919964315001    0.42862113823034
H           1.35165118072272    0.14653698930374    0.12939743666960
H          -0.84231887121420    2.75816587735657    5.48369277321776
H           0.26972946908985    1.43646335031492    5.96284536417375
H          -1.46370996486365    1.12456800506290    5.72490305582892
H          -0.70172349334759   -1.00777838868470    1.98513446378222
H          -1.21941118635379    0.48545626974172   -0.02860982414166
H          -3.62855614878313    4.09711245633715    1.15094555785325
H          -4.91670542377672    3.27322368547166    2.08082159853460
H          -4.98850264201215    3.30610441489143    0.31423098195774
H          -6.19973747139539    1.13911400768117    1.08281239819908
H          -4.93941185483007   -2.93542620621084    0.67886593422894
H          -2.58749331925377   -2.25243097657609    0.68877388237401
H          -7.81770673939893   -0.47963041688404    0.96138365296628
H          -7.03670955249086   -3.42889537262806    0.72484556675423
H          -8.71048242510834   -2.70814937416758    0.82044110728458
