103
 SCF done       -182.749648613065          0.000278315874
C          -2.07223841705839   -0.98576184128536    3.81828650119540
C          -2.02436291628413   -0.53977851590710    5.13221745749775
C          -1.38969165909111    0.64438655253252    5.46606238830592
C          -0.79124547415060    1.43125567145368    4.48824196450445
C          -0.84622413124517    1.00740416474709    3.18010842052572
C          -1.47478202377118   -0.19898248123052    2.85285034347638
N          -1.37696516345098   -0.42106995558408    1.48667818582756
C          -1.90592957220783   -1.56766399598354    0.79972303659507
C          -0.71462234821637    0.59554886169807    0.85687884016540
O          -0.49485001258920    0.64955735012402   -0.33027357845797
C          -0.35757115523759    1.64088333206380    1.91365255414495
C          -1.10025219542792    2.95847294503002    1.59694853417614
C          -0.73838787502511    4.00804195144666    2.64656594314906
O           0.35141698953440    4.47782109004761    2.87095655162956
N          -1.87942991676392    4.31201894140165    3.33909412162388
C          -1.91423158128317    5.23584782697734    4.43954166277961
C          -2.97513802394452    3.61601702069979    2.85101557559809
C          -4.27776313902481    3.64351552148837    3.29568622467295
C          -5.22466393315255    2.84872807201089    2.63204031347948
C          -4.82493113306531    2.07806344077808    1.53351175224082
C          -3.50951596529482    2.05523464907874    1.09770347998024
C          -2.57954016819700    2.81808733936808    1.76900293202747
C          -6.60922152833630    2.78277822965220    3.03640884325139
C          -7.16756963222085    3.38427896437886    4.10617536299766
C          -8.54555956570919    3.22569889280620    4.42966147429425
O          -9.04393323700830    3.84522123408230    5.53501971099149
C          -9.56865472286553    2.51662797317658    3.83254431904483
C          -9.91714581475753    1.63298931311137    2.72097843203599
O          -9.25016278232524    1.18992303421915    1.81836201650945
N         -11.27005297994792    1.37177192840156    2.91561762633393
C         -11.84217403817278    1.98210861551069    4.03311504947489
O         -12.99354491868183    1.87065798045013    4.36743562681326
C         -10.72960189640807    2.72472066865551    4.62326974368614
C         -10.36759306793429    3.54901773068770    5.66800296727891
C         -11.13911100788711    4.05081410950068    6.75167933303483
C         -10.65438432679106    4.84860494735086    7.72754439115957
C         -11.46307413491756    5.30535994295750    8.81470448375693
C         -11.07390506487697    6.09664657122357    9.82878364995920
C          -9.69361768065419    6.64440427045039   10.00753084080663
C         -12.04242435586568    6.43410101884109   10.93897704639120
N         -11.54892795847985    6.01348887351036   12.23036783225584
C         -11.38148712589561    4.71003515722605   12.54641043770153
C         -10.68057626531596    4.28252236245356   13.62895640316326
C         -10.53416887816606    2.93224006779003   13.99266863987074
C          -9.82749455772627    2.52056128910023   15.09333457786740
C          -9.59813775895914    1.19926551288238   15.54584938627914
C          -8.85640523783927    1.11772554781727   16.68650375484035
C          -8.46095494815659    2.37264717936162   17.20072684050202
S          -9.05135738430330    3.66373667629408   16.18656599378520
C          -7.72499517804113    2.66057782879255   18.33551825700459
C          -7.15520176636731    1.78656132220390   19.28241827628745
C          -6.50097906430685    2.42547478203504   20.29326014223972
C          -6.52029768791106    3.84165599434992   20.20111812851736
S          -7.39851739328103    4.32721460671680   18.76727616754923
C          -5.95033617358936    4.70117242454317   21.10745319883616
C          -5.94652662946381    6.10869224389423   21.08400171823772
S          -5.20007285154481    6.98091000042365   22.41959025496513
C          -5.55158685492079    8.54141266062359   21.78092656103002
C          -6.21580387130190    8.41995874705186   20.58558868900699
C          -6.43312757052398    7.05763993652285   20.19927955418472
O          -7.07977717915332    7.00282092297765   19.01321309425261
C          -7.28076248064877    8.29329995626535   18.64396917926756
N          -7.94413387689102    8.53676936432463   17.42655242901233
O          -8.10948171609287    9.70789687618182   17.12053513191253
O          -8.30803257508953    7.58854438697591   16.75868448848052
C          -6.78585641478883    9.20138653796278   19.54517174265768
H          -2.55997645342701   -1.91411013581800    3.56649435051740
H          -2.48613943552453   -1.13346246886278    5.90684184765292
H          -1.35653903057325    0.95996312423608    6.49773993620369
H          -0.28603157443913    2.34787489255637    4.75169121315762
H          -2.98989521808948   -1.62017177422946    0.92209549507468
H          -1.45517431769471   -2.48609619139103    1.18078816759700
H          -1.66290422641486   -1.45683767424069   -0.25657809928291
H           0.71668655057069    1.84460926991581    1.91555222222944
H          -0.80569987625648    3.28459897750200    0.59569671052959
H          -0.90358334312154    5.61949049408624    4.57562347327958
H          -2.23920283458769    4.73161328269463    5.35223777902971
H          -2.59036879034466    6.06569465617069    4.22441493994520
H          -4.56216210196633    4.26152415581002    4.13093649658108
H          -5.56685931858746    1.48489917462298    1.02092852573821
H          -3.22279392699710    1.45831957373863    0.24574546462425
H          -7.24516794436764    2.16961358102222    2.41129515208858
H          -6.60440134111822    4.00819981775516    4.78403656987167
H         -11.80074372308002    0.77925414571465    2.29320240121572
H         -12.17278803718086    3.73532433325100    6.74983172011200
H          -9.61414594399797    5.13681705393208    7.69393152002682
H         -12.49071062082106    4.96316144054405    8.79443145916751
H          -9.17900461299918    6.75397899492746    9.05812734837105
H          -9.10335688143828    5.97731688752019   10.63813688059028
H          -9.73143893328846    7.61676477390800   10.49522522375730
H         -13.00492329964651    5.94690083331866   10.75523772550098
H         -12.20767667113745    7.51471915088429   10.97707171352308
H         -11.00319000685219    6.67540779894808   12.76229900379205
H         -11.87789594047028    4.00745880817783   11.89057387109469
H         -10.19947313672073    5.01722142696274   14.26195629109199
H         -10.99525330745480    2.17518998205301   13.37190353359135
H          -9.98957691935908    0.34964292344136   15.01352155080868
H          -8.58715786681512    0.19644249145654   17.17183473333431
H          -7.24069250856911    0.71767098728929   19.19667477009162
H          -6.00516416013072    1.92779124655369   21.10814428219555
H          -5.45047807526569    4.25156010235253   21.95499158147648
H          -5.25390175198717    9.42014011937875   22.31203354265544
H          -6.83260445076209   10.26669911911704   19.45667560016929
