130
 SCF done       -217.425265107346          0.000724034254
C         -10.29484355332540   18.92283064597567   16.35756449332734
C         -10.58122038728077   19.27287741085266   17.67011360130623
C         -11.55602730811792   18.60862507545541   18.39469601627491
C         -12.27584266719557   17.56433157938185   17.82607435637899
C         -12.00248122296658   17.21055369499308   16.52477428841659
C         -11.01760988943885   17.88731399313382   15.79899639841513
N         -10.93714318213785   17.35964406718869   14.51722528255246
C          -9.98807692710835   17.77022517874345   13.51942571232823
C         -11.82182207264175   16.33927620465841   14.33748191743002
O         -11.94627979077198   15.69604615709984   13.31838416998639
C         -12.58227349826160   16.14303872361798   15.65224862782315
C         -12.30352596730232   14.71312323830801   16.16879966001481
C         -10.81740522895210   14.40657523041446   15.96503037276736
O          -9.87627085584948   14.98844445968234   16.45640133031694
N         -10.72365421649837   13.36392178040865   15.09049441071380
C          -9.47443351428369   12.87239060408410   14.57849087806215
C         -11.97521154648908   12.91955438264433   14.68604682590074
C         -12.28512222725701   11.91027669924232   13.80275427449872
C         -13.63763917921281   11.64100385289653   13.54723930084222
C         -14.62028514134089   12.39217485691706   14.20257325475506
C         -14.29595045790086   13.40698344434736   15.08755876443777
C         -12.96627509731421   13.67030819519738   15.32904039132893
C         -14.06895957072675   10.62587880126238   12.61412285816369
C         -13.29177412599606    9.78556045727895   11.90521016632002
C         -13.80035499927545    8.85058499441886   10.95485046234946
S         -15.43421688632835    8.98610509989811   10.37085712644224
C         -15.17668648819431    7.71877341791655    9.23662314460684
C         -13.91849594381415    7.21542479063357    9.27779612943116
C         -13.43859451727052    6.10372668055429    8.40485442207026
C         -13.11433465293704    7.84573114257953   10.28214659893100
C         -11.76966092987919    7.41682506081551   10.54519701251271
C         -11.15353490478049    7.41936807420501   11.74791091958457
C          -9.82728079158439    6.94401045734941   11.98551221467002
C          -8.88620372055091    6.70772222089794   11.04144679936651
C          -7.60621382100821    6.17570993191281   11.34323921924096
N          -7.17847806703821    5.80351046116075   12.51418792884397
C          -5.94029008219321    5.30141990565807   12.44659235697147
C          -5.36693283515912    5.27702048929099   11.19358659569320
S          -6.42671629845110    5.93427859199573   10.02330356063332
C          -3.97385816152759    4.80103121480307   11.30064669604725
C          -4.09773147187179    3.94365843587160   12.56876300090363
C          -5.02312692163597    4.75011144845995   13.52017659152052
C          -4.26020784133933    5.89992915410925   14.20782379405262
C          -5.16894290557257    6.84951115844410   14.98084169229252
C          -5.80641987562999    3.92127150317482   14.54884370289201
C          -6.42810272472786    2.63901449979387   14.00658658814566
N          -2.75077259691002    3.52187864572725   12.86834195460747
C          -1.97813947924052    3.34593011145287   11.65113575130173
S          -3.07173094858840    3.65291077354161   10.20705492740845
C          -2.39004130709595    3.00493380694689   14.05240432033881
C          -1.18509464691594    2.48623492116836   14.43497471353261
C          -0.91175290361315    1.96642074522584   15.72688439383665
C           0.35679987239029    1.50345005633305   15.89092128763024
C           1.17008639483390    1.63539211730754   14.74286738379062
S           0.27244272160760    2.36477131685793   13.43945832909217
C           2.49426049798095    1.26467257520459   14.58138189855026
C           3.35158819647643    0.65147273782650   15.51345361063619
C           4.60672081014663    0.41171871783434   15.02797113544198
C           4.80063877088684    0.82815391148706   13.69466993785038
S           3.33256021602303    1.53440536009957   13.06518950547560
C           5.96377697033286    0.71824537243311   12.94935960617561
C           6.06598406749660    1.17775481478849   11.64636618462339
C           7.19914891769555    1.09349328546757   10.85324756499511
C           7.33916628265961    1.58081168746679    9.51003042671559
C           6.39183295251792    2.23255457735209    8.74925295635450
C           6.60883165765532    2.68528555726234    7.43467520790070
N           6.71395069497220    3.08232689959696    6.36071001379091
C           5.08141861990359    2.54793111011924    9.15508454014043
N           3.99773835333852    2.84743813014290    9.39833600558356
C           8.69754430551222    1.26968686737701    9.06260515471570
C           9.37618598400828    0.60522752432340   10.11176244223999
C           8.46449858577904    0.47410572762643   11.27169524381999
O           8.73812386062776   -0.04707883477057   12.33790764056078
C          10.67505465328009    0.17753937861976   10.00130018503599
C          11.34132029057997    0.41864786756462    8.79385161171401
C          10.65700509648120    1.08511075955030    7.75322053719761
C           9.33991922075822    1.51714849371791    7.86545359775703
S          11.66472216961645    1.28293423839087    6.34933001285990
C          12.97321269364810    0.47588907612087    7.17254033396657
C          12.67451306053382    0.07907927268516    8.43123967378992
Br         14.61209400313395    0.23283473247988    6.29021943835384
H          -9.53033531821762   19.44130093163601   15.80077082737825
H         -10.03007402817661   20.07792096605430   18.13272819974332
H         -11.75708070776183   18.90148796812199   19.41395311877227
H         -13.03283054809878   17.04537332598217   18.39550789344380
H          -8.96876889289398   17.59492952246039   13.86990304845319
H         -10.11352046029890   18.82896438061717   13.28442730599940
H         -10.17412799342837   17.17443005814837   12.62639381254365
H         -13.65811021626398   16.25904411248083   15.49495450752954
H         -12.57215092286937   14.65702823207069   17.22685089708864
H          -8.67798410680056   13.42995534670705   15.07036945401906
H          -9.41855492868438   13.03077075406246   13.49945016938510
H          -9.36244450011698   11.80810212139013   14.79569934668487
H         -11.50724451331840   11.35374222479446   13.30626719737849
H         -15.65949347455649   12.17865007045901   14.00079009027868
H         -15.07291440142916   13.97942687731012   15.57240621811341
H         -15.14194919534598   10.55145804722536   12.48159813000320
H         -12.21618369117148    9.80261544057669   12.00631382405661
H         -15.98463007869906    7.41852386461132    8.59878582210023
H         -14.24597833144323    5.74853534085567    7.76999797900463
H         -13.07593904999089    5.27344221013369    9.00943001339302
H         -12.62210388220005    6.44366976349766    7.76789621331271
H         -11.25371784587445    6.98441895563819    9.69848157926918
H         -11.70916739971378    7.72991230769736   12.62232887338859
H          -9.55268874757921    6.75771589666775   13.01487693504203
H          -9.07116548388996    6.91649262182753    9.99813482948770
H          -3.29250117078814    5.65068523510848   11.43338929029494
H          -4.67318150060142    3.05348779576632   12.26753716734518
H          -3.72927439738009    6.47305387548931   13.44501187020579
H          -3.51093953567186    5.47796164169162   14.88151225274094
H          -6.00291321996969    7.16486722038388   14.35891871058010
H          -4.60819192289344    7.73083377895773   15.28250449348891
H          -5.56328936848043    6.37763374924599   15.87624963528319
H          -6.61396331227158    4.56028856313462   14.90713916275542
H          -5.16452253657849    3.68593862224709   15.40130015159140
H          -7.00333994828035    2.84654105704963   13.10710453513756
H          -7.10425738710186    2.22289607694917   14.74948164015670
H          -5.67727936642409    1.88341635674570   13.78330593935112
H          -1.59001747558998    2.32994364564256   11.56138820053305
H          -1.14493998236408    4.05431965952429   11.61149506681081
H          -3.16602940093344    3.03802906438415   14.80437930584452
H          -1.66757669762770    1.94739308045829   16.49241562062351
H           0.73133299890578    1.07424868226302   16.80220802700244
H           3.03007591994711    0.40055031892321   16.50864435955054
H           5.39920982717658   -0.05016877211514   15.58940516285917
H           6.82159383561142    0.25652048033447   13.41568887985554
H           5.18341222177084    1.64198612284725   11.22289205862246
H          11.16455852150508   -0.32715310668929   10.81972310114091
H           8.86362947614000    2.02045360626344    7.04085044012762
H          13.36278757191458   -0.43235789931256    9.07946720375885
