202
 SCF done       -326.225664596027          0.000805668376
C           1.72366740955800   15.55406021245990    6.66037605719102
C           0.79191062740010   16.31080479240043    6.09649703776487
C           0.08403261005409   17.40286397040234    6.76023379624422
C          -0.37969225207561   18.46955074686419    5.99050579764875
C          -0.96037451817034   19.58709992508579    6.57325568440105
C          -1.09963829984239   19.61615515476401    7.94262681912418
C          -0.72862119612368   18.50572249651878    8.71015471847887
C          -0.12415010367088   17.40440433451651    8.14314018701394
N          -1.05663294645041   18.73433709194248   10.03922799510580
C          -0.86080782761552   17.79320306601587   11.10700997793041
C          -1.59063805972870   19.98164400318911   10.21948293599697
O          -1.99369722327101   20.41608881278673   11.27190466051195
C          -1.51258483337572   20.70978126288795    8.87778653980893
C          -0.36454683177755   21.76289770822626    8.98510605169808
C          -0.06121717930923   22.24744404368509    7.57280104623615
O          -0.70779942392644   23.01352277165875    6.89833077593763
N           1.07227402817758   21.60088688540333    7.15333419061822
C           1.63306871084365   21.85020929754922    5.85110608159827
C           1.64211432046724   20.85720462250688    8.18315478194044
C           2.75809416718333   20.01916088148307    8.17188205321078
C           3.37146396388035   19.53978644185048    6.94499319578373
C           4.64775336259316   19.16707814618145    6.79652549056626
C           5.18136516638204   18.58389252561727    5.57569262808337
C           6.53064880214528   18.75093096893212    5.25983554583817
C           7.06905862490638   18.24807334590684    4.08480021790303
C           6.25013957640879   17.54265117528589    3.23182318878656
C           4.90568890872668   17.34141480117238    3.56216156660456
C           4.35533750298314   17.85041937036977    4.71611621064466
N           4.29489839340275   16.57712623862194    2.57751828069163
C           2.90891233272446   16.19944194534710    2.57388117661532
C           5.16243222580373   16.26306783935172    1.57395336792810
O           4.87839820626927   15.60520889842587    0.59725251017543
C           6.50482550876829   16.92687262250457    1.89381458468642
C           6.77571466646885   18.00468051021992    0.81087721986462
C           5.47243142419157   18.77018626699119    0.60209227899458
O           4.92854635803225   19.51994983862132    1.38385261442680
N           4.97944417807456   18.43054454881736   -0.62434501087744
C           3.80710070008594   19.07512753907272   -1.15151374292129
C           5.85284776370780   17.58385542479802   -1.30557667378151
C           5.73331072367279   17.00313728868149   -2.56581860061468
C           4.47950742611944   16.93833539661980   -3.31103775200274
C           3.35402877298903   16.50425793460207   -2.73198474649827
C           2.04602588440863   16.36367855708111   -3.34600179594491
C           0.99066883042723   15.89339856724815   -2.55933338604876
C          -0.28954305721376   15.73807216880410   -3.06728434516426
C          -0.52126424077776   16.06989887637868   -4.38321370040655
C           0.52986521163200   16.54085554031207   -5.17726828909353
C           1.80530209910355   16.69627901375209   -4.68427762477565
N           0.05783307670017   16.81539449850474   -6.45414835484197
C           0.87109948723276   17.25334909917193   -7.55453337447419
C          -1.27346639514974   16.54787663669496   -6.56635397334199
O          -1.92792869442712   16.72077323528387   -7.57205876358093
C          -1.74893340880076   15.97069771004941   -5.23041719145988
C          -2.16018081196589   14.49148659167456   -5.46427923384873
C          -1.06607622794641   13.87049304192598   -6.32869823634638
O           0.07349066256176   13.62377494547869   -6.00013922747330
N          -1.57818599221149   13.68546366327903   -7.58010125470163
C          -0.79828901796026   13.05007003873676   -8.60856135694506
C          -2.93225412757420   14.01151003850114   -7.62490473903408
C          -3.82326589811195   13.97157522976804   -8.69558093871256
C          -3.36570087770038   13.89084643413252  -10.08156189367348
C          -2.43626283550138   14.75344322085903  -10.50785904966079
C          -1.79408752043563   14.81590526863599  -11.80723670530347
C          -1.93575057864941   13.81923139066999  -12.77468779726319
C          -1.20695949591208   13.84701207925996  -13.95371253823114
C          -0.33839168675291   14.89296798235908  -14.17487040794025
C          -0.22143721432381   15.91494116353881  -13.22711520198717
C          -0.93158397308470   15.89260791535563  -12.04974995822710
N           0.70188101282723   16.85488141716997  -13.66663755667289
C           1.09477701338613   18.02398653243216  -12.92998548265644
C           1.24880091764783   16.49973909257456  -14.86311517807273
O           2.08276669312445   17.14185907294739  -15.46295288991952
C           0.66110851994106   15.14228858728372  -15.25818995008500
C           1.81183722071927   14.10369370866233  -15.20084156492940
C           2.54538100432582   14.29888948697291  -13.87839296705697
O           2.10766834805890   14.12398694226354  -12.76136398399399
N           3.80062547127300   14.75680792699712  -14.15646952469736
C           4.72088012892056   15.05638340860265  -13.09141615231090
C           4.02975684446757   14.82017501980579  -15.52938945882108
C           5.18033232833173   15.18448564850740  -16.22907279308637
C           6.36975900596764   15.72183217326885  -15.58278511136735
C           7.62668217154596   15.43335830773850  -15.93811781193939
C           8.81432143669856   15.94541129488866  -15.27403569804686
C          10.01683151436778   15.24770867111777  -15.40830985591806
C          11.16575517612412   15.63939682409150  -14.73807950715667
C          11.11504418117726   16.76073105459246  -13.94110959342495
C           9.92426261945673   17.48644051516662  -13.83161025503339
C           8.77488066170837   17.09939941712527  -14.48200490004498
N          10.12330799878102   18.58363881421248  -13.00393553243399
C           9.10363948073791   19.52460452830858  -12.63121611200528
C          11.39706517467138   18.62474518554232  -12.52101498728881
O          11.82925562964677   19.47069949674697  -11.76957089122250
C          12.13997424579511   17.39947335437996  -13.06075146556024
C          12.51524291387064   16.50218042506437  -11.85757785110980
C          11.30949449228548   16.42620655075045  -10.91717053947293
O          10.20701986918236   15.99204216220701  -11.17121380580097
N          11.67781274864842   16.97258511308994   -9.72414882747544
C          10.77277335658680   17.15399606113621   -8.62303418407607
C          13.00144064308952   17.39145731742267   -9.73959384741064
C          13.73402709362026   17.98766946110739   -8.73254895068627
C          15.05943867504346   18.30151702760710   -9.00072593376964
C          15.62803809117192   18.02592785099519  -10.23240009693578
C          14.88182305041600   17.42944612636267  -11.24197849333002
C          13.56759108168220   17.11192077001054  -10.98694323947540
C           5.13339843535700   15.04679416429321  -17.62123868839228
C           4.00609149745068   14.60453725119689  -18.28299449446208
C           2.85631525638467   14.27706034982797  -17.57495897419988
C           2.88442535785182   14.38029594053481  -16.20355895913102
C          -5.17432156961889   14.16342167596063   -8.39526032888196
C          -5.60408786456982   14.47269481192927   -7.11943524956952
C          -4.68885785833827   14.63230333089964   -6.08504310931666
C          -3.36083774676427   14.38652533430312   -6.34640830584201
C           6.86781463085244   16.35561894377351   -3.06657847668053
C           8.02110466807147   16.21140409274766   -2.32186608217028
C           8.08501155593175   16.69650078696920   -1.02062182100261
C           7.00275883375000   17.38982822560243   -0.53122575025550
C           3.17834353964772   19.53228748605130    9.41708533458167
C           2.50800992948492   19.82001885498432   10.58820933942755
C           1.33107661400653   20.56164936865302   10.56476865824812
C           0.90465531223901   21.06005511097091    9.35593618105369
H           2.22902779704884   14.77395233078569    6.11671069965366
H           2.02800291386059   15.69075959825591    7.68408613165256
H           0.54063089354042   16.16667790493332    5.05242242734370
H          -0.25386828233311   18.43673878491897    4.91767811821180
H          -1.28740189094129   20.41725769265097    5.96565096228355
H           0.17726397558938   16.56030683081527    8.74170625542151
H           0.20330846853440   17.58485252583417   11.23907627218768
H          -1.38987545810535   16.86103465807641   10.89978618703281
H          -1.25913753949232   18.24235629157414   12.01594798947572
H          -2.44185987843915   21.21790621550629    8.61808505273024
H          -0.67184565814381   22.56428063926549    9.65663742517170
H           1.20140096784671   22.78350708621445    5.48669571473782
H           1.37817420962798   21.05420047962051    5.14839250988891
H           2.71656849377663   21.94331510827596    5.91621230020798
H           2.69672917325180   19.43746072445293    6.10814909666397
H           5.35956652498615   19.33668163363424    7.59354350839885
H           7.16086746980695   19.30908352669277    5.93635949348735
H           8.11058541330427   18.40817091469681    3.84841074105020
H           3.32161160054429   17.67427352254748    4.96780246533002
H           2.27376614662023   17.08657856299575    2.52018686592952
H           2.66594893345274   15.63377770674492    3.47532008564295
H           2.74217215704114   15.57612468161504    1.69576471638212
H           7.31957641123492   16.19915368536699    1.88561955114950
H           7.57940846392290   18.66039345116752    1.15156935835548
H           3.59167117459047   19.92343009014009   -0.50010008767028
H           2.94668796668805   18.40402341970404   -1.16254836406044
H           3.99380703612716   19.42375303167451   -2.16731667007135
H           4.53004579006391   17.16564882265608   -4.36685508512252
H           3.41340155556397   16.20064224092658   -1.69391504035829
H           1.18593070683134   15.63417935643685   -1.52904433451933
H          -1.08559442186635   15.36418895494114   -2.44042827059859
H           2.60122697901949   17.05244509365091   -5.31702878841743
H           1.62692306128092   16.50101943388965   -7.79032841533953
H           1.36048999363277   18.20031180402275   -7.31753253834140
H           0.21286204644102   17.38993861431357   -8.41190425050235
H          -2.60620420349749   16.52413097608580   -4.84003768655512
H          -2.25541382454156   13.98881540149701   -4.50027182851931
H           0.08185284809917   12.62637520536017   -8.12275796106957
H          -0.47702187624887   13.76082580203512   -9.37185658998782
H          -1.37616367955982   12.25880709609826   -9.08601814895461
H          -3.84715011735952   13.17815751275441  -10.73644592851760
H          -2.09927322701590   15.49893727810985   -9.79667337361854
H          -2.60048378138909   12.99042346531138  -12.58863924589652
H          -1.30867897828342   13.05053100029378  -14.67627078372836
H          -0.81886523059779   16.66866599675988  -11.30839575076018
H           1.55482986745755   17.73821298404031  -11.98119634335100
H           0.23069145431100   18.66192782193117  -12.73458467036328
H           1.81774918847717   18.56631894448875  -13.53876767086103
H           0.24417852176636   15.16367968561495  -16.26715295912075
H           1.38739895048437   13.09994291906250  -15.27553156544132
H           4.29807298208728   14.63082873828643  -12.17985515826669
H           4.82726192115363   16.13476582731552  -12.95540277783830
H           5.69629459049793   14.61143553205937  -13.28719259006759
H           6.19100577662489   16.39869307279308  -14.76231078718185
H           7.80414303299091   14.70932639310186  -16.72292861178106
H          10.04210053037155   14.36525469672575  -16.03068547241159
H          12.07870303458555   15.07123840231168  -14.84003191360874
H           7.86748687250539   17.67346313849199  -14.38995137143718
H           8.29890229246516   19.01861917948615  -12.09339343636842
H           8.69519432238477   20.01735029415353  -13.51579281503669
H           9.56562872391072   20.26718180357432  -11.98137033427148
H          13.05220459490907   17.69211604986537  -13.58618618231437
H          12.78230688711393   15.50819324117957  -12.22596406498904
H           9.81227038202403   16.73166864899760   -8.91671443716175
H          10.65331474034230   18.21653742093875   -8.40092402472528
H          11.14153501180001   16.63764428117241   -7.73444749696046
H          13.29556076047786   18.21092273095542   -7.77269635848176
H          15.65519136679647   18.77160575274258   -8.23254382631271
H          16.66077243188935   18.28212527047568  -10.41363742724064
H          15.32664038169813   17.22190060699416  -12.20401086723400
H           6.00618138878327   15.33157509851225  -18.18944027100371
H           4.01345863405906   14.52660400617824  -19.35953631920986
H           1.96555435308019   13.94612053014482  -18.08729664919471
H          -5.89070860598225   14.10876678183607   -9.20202927360347
H          -6.65594335393792   14.62652364508731   -6.93201835781985
H          -5.01454501797674   14.92929352670832   -5.09935647878942
H           6.81283176795921   15.92159390835376   -4.05427335961681
H           8.86839321532119   15.69153196274480   -2.74255068124857
H           8.96619065291617   16.54454469780817   -0.41551868503731
H           4.03942367780569   18.88189991332220    9.44512737299778
H           2.87745639408798   19.43265294971809   11.52574699270068
H           0.76604074507974   20.73792930915338   11.46679838325623
