116
 SCF done       -190.465885066090          0.000437535524
C          26.72903317086438   -6.87001957470569   -1.23211090540944
S          26.55292629164310   -7.58101885984321   -2.91592850272545
C          24.99540457485550   -8.43096659216353   -2.49627832342426
C          24.36632926935987   -7.58716561669171   -1.38698264566868
C          25.52457669872186   -7.31635067731558   -0.41308192161775
C          23.26872772065431   -8.45163735625482   -0.72965542120297
O          23.52642519157308   -9.25236816313706    0.13559507670117
N          22.04792925486475   -8.31470731426438   -1.28322870130102
N          23.84707219308535   -6.37408252345917   -1.98169334453890
C          23.22639488367265   -5.37516843908201   -1.29672829367523
C          22.74257769420873   -5.45304815940828   -0.03375200788161
C          22.03045817454251   -4.40547126667103    0.61629449956470
C          21.56716332452135   -4.59348502780506    1.94147241402200
C          20.83483534152658   -3.58562934288884    2.67890124388951
N          20.40267696973699   -3.86651604544519    3.90786370314610
C          20.65541599714118   -5.04047165046191    4.44916279574566
C          21.40477400330306   -6.02299426271039    3.73254157085313
N          21.83012185866518   -5.77935217914446    2.51749566064978
C          21.68908189300851   -7.27186199851743    4.33757604903861
N          21.89103659223399   -8.26507160933446    4.87225233636638
C          20.17736453144544   -5.29784512219716    5.75387257380067
N          19.80236621006311   -5.50978745966356    6.81702932086692
C          20.52687701163641   -2.31698349788512    2.10879983553191
C          20.98480557899867   -2.14750025051401    0.76706314543570
C          21.71973971014389   -3.15137432526827    0.04023557256249
N          22.03333009306980   -2.73715053621270   -1.18966932675730
S          21.46455336364313   -1.24334782660982   -1.40615904500979
N          20.79527477735439   -1.04936847333584    0.04251593300979
C          19.79071109826597   -1.24848839754722    2.64772882330753
C          19.28415790453458   -0.95017693547945    3.89757170705643
C          19.41169800218278   -1.52528367061967    5.17837457285804
C          18.74476521370582   -0.85932156363522    6.16621470530200
C          18.04301061416157    0.28031622320280    5.72344057203786
S          18.28108008492005    0.49536102253352    4.00900153817925
C          17.24993248005033    1.13580166838357    6.47028815851571
C          16.97181654328323    1.07858608738042    7.85309879879016
C          16.13149838423255    2.05710191829575    8.28509904427918
C          15.68418183918454    2.95048288791135    7.27176136556519
S          16.41630461442579    2.48529893402177    5.74053649676760
C          14.79055018384087    3.96370137614932    7.48296058249131
C          14.22057053189729    4.90744383878085    6.57525226393883
C          13.15375816826191    5.70515569315649    7.04194833209860
C          12.55348689681184    6.60650164763406    6.20368583052576
C          13.00038743659551    6.75642500400520    4.87805340763277
C          14.06016035395240    5.99200592356795    4.40734729298034
C          14.65607543388698    5.07942171095390    5.24982966046901
C          12.21106478847404    7.78430291324275    4.24091091136949
C          11.27111487550486    8.27108044326381    5.16674891977619
C          11.36647582904047    7.50941500236308    6.46999065962494
C          10.14381696404248    6.58569971100018    6.68491197621157
C           8.79301870036704    7.28159949209646    6.78507312881135
C          11.59637793905775    8.43643523460909    7.67178533600707
C          12.86794751437950    9.26487920605443    7.52799524523378
C          10.45104915110046    9.32047625018498    4.82642569439511
C          10.51738061103477    9.87671840159021    3.54070626265070
C          11.43734213089390    9.35709699373022    2.62357043530343
C          12.28813307392938    8.32630925378754    2.96553320824539
C           9.62416564420154   10.97579073270400    3.22191732689360
C           9.48922469554758   11.58442892689209    2.04281133590654
C           8.55735025123771   12.71133336369117    1.80179779873035
S           9.53671623963771   14.26179974648257    1.47248598081047
C           8.78180101430616   14.52268433727312   -0.16506516374569
C           7.40444870633619   13.86464606386786   -0.08509017977518
C           7.66712447419643   12.50417179709830    0.57759759035501
C           6.88809091109372   13.68819085105934   -1.52760490688682
O           7.15749525463139   12.72113623266240   -2.20168528506958
N           6.17896005560159   14.74013554946985   -1.97429652215202
N           6.51648115295799   14.71982346190644    0.67664093334012
C           5.24188625320271   14.27435691444035    0.98904631045812
C           4.54663281951113   14.66585612728782    2.04814495777808
H          26.76848351887791   -5.78703595360539   -1.34701765547297
H          27.66933373575528   -7.21607293728273   -0.80855978046403
H          25.21939814561205   -9.43531928614918   -2.13728009168084
H          24.37514596749826   -8.49042943946353   -3.38862571009774
H          25.73196013110023   -8.24358376278795    0.12231164275445
H          25.25012306529400   -6.55256575400244    0.31377320489309
H          21.84399474249477   -7.56084751242961   -1.91553426066602
H          21.28212186664094   -8.82224245986567   -0.87097478290950
H          24.33828304230817   -6.09669321584528   -2.82100990300977
H          23.07679586848845   -4.46798507385761   -1.86466118436419
H          22.87530895910985   -6.34517576643597    0.56035265323253
H          19.58584834794258   -0.48953713197263    1.89937996521612
H          19.99024847521704   -2.41368461586862    5.33857905018553
H          18.74101986404321   -1.16865667092063    7.19598196959779
H          17.39359532743999    0.31920515720798    8.48644136481831
H          15.80632170512121    2.16876150568668    9.30459518768845
H          14.43021223107091    4.03778793214000    8.50317892888049
H          12.81552507361102    5.58655903074368    8.06176693091874
H          14.41561701968061    6.10978710908865    3.39485570580964
H          15.48682079368882    4.49864694836128    4.88414673653969
H          10.31837591668722    6.01222653549156    7.59829979526533
H          10.11069437239023    5.87704000988415    5.85298463907837
H           8.77751327376207    8.00473372345812    7.59632753859492
H           8.02089340265796    6.54027918348936    6.98056711372965
H           8.54741195500566    7.78602194177230    5.85468529152515
H          11.65603258176970    7.83091658903804    8.57883532992432
H          10.74402667212419    9.10939958229683    7.77322202852974
H          13.74097782810049    8.62048354608866    7.45145684023481
H          12.99309292007683    9.91414784530409    8.39159489214834
H          12.82122217792599    9.88438175307805    6.63499651594278
H           9.75776224453462    9.73858170534194    5.54160423229162
H          11.49846868447962    9.77966524916544    1.63321474959015
H          13.00795701429433    7.95201024937195    2.25303285292239
H           9.00204637273924   11.30970574570767    4.04464125392060
H          10.08509679425303   11.29946960330776    1.18804342143589
H           7.96434056464036   12.92358832796450    2.69476623032626
H           9.39823093813673   14.04459528086744   -0.92649838769747
H           8.72561225155182   15.59290463210216   -0.35420815412472
H           8.16280129927453   11.86270397004785   -0.15346726417187
H           6.73090321484554   12.02784402277822    0.87124995454458
H           5.93439158222592   15.48732214519015   -1.34651287302514
H           5.79468615122883   14.71753822183003   -2.90390197830956
H           6.98199654114471   15.17755247711815    1.45252481266041
H           4.81503379004513   13.60958954424670    0.24896855123007
H           4.96601522618856   15.32694109958369    2.78744830536181
H           3.53178114362385   14.34993269726852    2.19616592914715
