130
 SCF done       -223.178542186137          0.000460048293
C           0.40646659531735   -7.84909336176519   -5.40072411696138
C           0.64271495745911   -6.86751454404955   -4.48567159424182
C           1.67983447115428   -7.04181694838200   -3.53970460214237
C           2.13215147655821   -6.21869194816656   -2.51454148465089
C           1.62754573196391   -4.85310654648307   -2.19143892424789
C           1.17639422632521   -4.71804279779542   -0.72513579418508
N           0.07937182496806   -3.77112452005407   -0.64363521161853
C           2.68638573070072   -3.79494521198190   -2.55618929429724
N           2.84943835199763   -3.75696448098556   -3.99761648220608
C           3.22955887171273   -6.90441859341977   -1.87946198479219
C           4.01217780007332   -6.58210063926385   -0.82912900100004
C           5.16673398361847   -7.42714574703157   -0.44183374238377
C           5.24012203543935   -8.75265184470032   -1.11981838951699
C           4.42872388719403   -9.08107214117714   -2.15039359635248
C           3.42520206182454   -8.18878317412507   -2.57313024076524
C           2.46704856911915   -8.26070579455316   -3.57718474881882
C           2.18726094197064   -9.25028360828007   -4.54055707389071
C           1.17431504192537   -9.04032696510761   -5.42933946913238
C           6.40961647093529   -6.70459889574254   -0.92554814775731
C           7.51940410431268   -6.57448560919023   -0.18796230818953
C           8.71405176852769   -5.90505126812835   -0.60946288469517
C           9.86364574897456   -5.95144555929153    0.21041606299726
C          11.11064421252271   -5.31605898561222   -0.14640212367880
N          12.12208539717956   -5.32265081236882    0.71423765957624
C          12.00796840286376   -5.96123153045712    1.86488188799004
C          10.81388796102265   -6.67433078825908    2.17392528722805
N           9.78138424188052   -6.64011648083281    1.36439129928306
C          10.72335458547367   -7.42518301407384    3.37239996576176
N          10.68139360435022   -8.02322162114710    4.34904364391358
C          13.09655187041283   -5.93741930503369    2.76449744728445
N          13.97502718339737   -5.94741463973584    3.50208977488221
C          11.25844480967729   -4.59743645045966   -1.37608460767588
C          10.07056738175635   -4.50851845956956   -2.16351221765964
C           8.83470519615626   -5.15731761676636   -1.80270540903672
N           7.88207455180710   -4.93789600086052   -2.70938559355677
S           8.48160171887739   -4.01445473990929   -3.89290696537658
N           9.97611261112215   -3.85334627413265   -3.31223246170762
C          12.38224042213759   -3.89235727307935   -1.80433775585380
C          13.71234391201474   -3.95859660378622   -1.39986589590423
C          14.44439722242130   -4.95387958116416   -0.73597783468312
C          15.77656141639139   -4.65918443075210   -0.58590927445277
C          16.14253899214216   -3.41455853170602   -1.11554286661684
S          14.77516338285226   -2.64016770452761   -1.85426230676225
C          17.40358684722397   -2.80554776542967   -1.08491296977870
C          18.59578493022763   -3.33661701747209   -0.57973597122998
C          19.65182031235570   -2.47052357871696   -0.69540272021272
C          19.32949524703846   -1.22729403219170   -1.27579075753776
S          17.63731690797649   -1.19062323824852   -1.70186668896015
C          20.27566969470902   -0.22186362137124   -1.42672642943889
C          20.20084578226991    1.08997328757905   -1.88711488921229
C          19.04550505546011    1.75838248798789   -2.38683904157311
C          19.07804114794779    3.15214326104744   -2.77727799148307
N          17.92449420747299    3.74879305303724   -3.12038647734168
C          16.81726442528704    3.04586702422984   -3.19767315712382
C          16.80756150623679    1.65240383112201   -2.91887196368174
N          17.91793340166703    1.06840593816595   -2.49368094569596
C          15.62341117218196    0.90024557546322   -3.06527862043480
N          14.62922197634031    0.34487762799094   -3.20820871950177
C          15.63726773326722    3.73240016560164   -3.57608218750744
N          14.69948833869870    4.30278378530216   -3.90680592501696
C          20.25811521928521    3.92928434262104   -2.74867611250161
C          21.41299726799502    3.26768420431590   -2.26478170664448
C          21.38648642837544    1.88577435276939   -1.85580534408859
N          22.57613443796635    1.45344885072592   -1.46286652931661
S          23.64503362954748    2.65738355211901   -1.59582731016161
N          22.63705177909755    3.78335222557288   -2.15747119076228
C          20.25613304066795    5.31811833332918   -3.14737199206795
C          19.37856087428986    5.78010041401734   -4.11299528518481
C          19.30015121686337    7.14978086507021   -4.39903907046388
C          18.44795418205894    7.84949843595433   -5.25113722464879
C          17.37536237812524    7.24805168178526   -6.09323672216392
C          15.98372223254260    7.73317907581307   -5.65405114148080
N          15.85211693629738    7.58437988678652   -4.21515014698386
C          17.61938086506829    7.50347644412195   -7.59038862095580
N          18.80976157009799    6.78218707359023   -8.00291714177359
C          18.78495898452229    9.24739277621122   -5.11769124894661
C          18.26506853043006   10.36010400103083   -5.67209547605103
C          18.80989081117950   11.71541301319443   -5.38071604278487
C          19.92026059596419   11.73923904921750   -4.38040084431255
C          20.42423343946092   10.62317795053404   -3.82278246160286
C          19.89235240489687    9.35439437398163   -4.15460820873421
C          20.18819539138397    8.07699472954888   -3.71930603256401
C          21.12663389661193    7.57201380064450   -2.79193612647089
C          21.15454071103300    6.24157052361166   -2.52022841338841
C          19.30289162649788   12.31970069057692   -6.68073510401691
C          18.80156070464461   13.40581303653319   -7.23506587713389
H          -0.38257250115461   -7.73070327020746   -6.12910711166822
H           0.05336023085081   -5.96353828883874   -4.47699562362877
H           0.74884285735886   -4.65539932016797   -2.81066458476253
H           2.03715407881053   -4.43971116241263   -0.09386656768352
H           0.80043134265850   -5.68335175999159   -0.37381910986061
H           0.37924844541572   -2.85166568736118   -0.94875507550747
H          -0.25687639036207   -3.69036516692681    0.30906962781328
H           3.62269657646968   -4.01686549526063   -2.01567687007686
H           2.33873161905751   -2.80615188443598   -2.24154117802022
H           3.15696534499879   -4.66301823282826   -4.33655436752404
H           3.54586100828690   -3.06939930823043   -4.26176531446092
H           3.88665207400822   -5.66304653065547   -0.27576182894405
H           5.22567813080268   -7.53612171812009    0.64604445013338
H           6.02407747568479   -9.41426008519980   -0.78606768224351
H           4.52792994438603  -10.03579557846009   -2.64666406646419
H           2.77373975015129  -10.15703303165511   -4.56524200009394
H           0.94249765316938   -9.78601864888775   -6.17575142710250
H           6.36942699096087   -6.32845181737197   -1.93556821304035
H           7.56976704842980   -6.99313525997436    0.80862636937582
H          12.17068944117858   -3.16922982818062   -2.58408367681032
H          14.00024755329609   -5.87482613642569   -0.41171123550494
H          16.48112011107155   -5.30953394319759   -0.09993212303013
H          18.66708664248673   -4.32122380400273   -0.15353238537107
H          20.65242653527936   -2.69338176183901   -0.36824197306426
H          21.27087367361469   -0.49732919918763   -1.09365704138808
H          18.76334735017816    5.08827754632691   -4.66313441058183
H          17.40643120266858    6.16371480575208   -5.95155725358975
H          15.22602924901338    7.17217385117270   -6.22730495517409
H          15.86176975851317    8.79487412501055   -5.88645250000169
H          15.98851003732187    6.61285328223474   -3.95307101928246
H          14.91559987816578    7.84213092351012   -3.92272599620102
H          17.67837657249172    8.58799082015212   -7.77793062170549
H          16.77617678362907    7.10663857921590   -8.16344292905549
H          19.61654937083048    7.11458826489128   -7.48434076538922
H          18.98872333275735    6.91632956045885   -8.99148298519038
H          17.44225723769141   10.32895390576908   -6.37178014649716
H          17.98653723526943   12.34686223578705   -5.01782533884158
H          20.31442448717434   12.71517058331058   -4.13987113955156
H          21.23104457686703   10.68030520009984   -3.10636731924354
H          21.80194289740688    8.24992892048308   -2.29066074785786
H          21.85735443574536    5.85066122521023   -1.80300298572038
H          20.12790781974920   11.78815816988909   -7.13465695609226
H          17.98110391149319   13.94803281262199   -6.79374651621440
H          19.19326665704589   13.80240268417629   -8.15630819824662
