122
 SCF done       -190.143258615983          0.000677271582
C          -0.47166057195697   -5.10184286750115   -9.76280815750455
O          -1.26142218034990   -5.85970275426213   -9.00034244610121
C          -0.46839994245641   -6.61511792975345   -8.19402642612309
C           0.84898674383371   -6.33023341756438   -8.45849917684983
C           0.85223841335424   -5.34384821396060   -9.48013700405082
C           2.07028617459658   -4.76874174369987  -10.07822844342497
O           3.17438479963939   -5.16815738982429   -9.83518192846151
O           1.88439091391881   -3.74351583281179  -10.93764086523185
C          -1.10398679266769   -7.52012102396978   -7.28153739093699
C          -0.43180355026708   -8.29225640910992   -6.41083414192323
C          -0.99137977529981   -9.23639280684914   -5.47101406890983
C          -0.12064561699866   -9.85387099612350   -4.55911015368524
C          -0.60780951357803  -10.76223271842973   -3.65359325867897
C          -1.97478760838805  -11.09134550298210   -3.63386697164820
C          -2.84651618272759  -10.48875750230384   -4.53060208792392
C          -2.35149061769358   -9.57053415708686   -5.43495386098049
C          -2.19618524074750  -12.07492871368333   -2.59577930099537
C          -0.96563882627244  -12.34515768870561   -1.97022766161285
C           0.14377512244100  -11.53390691520338   -2.59568566068096
C           0.80157243423125  -10.59191918841896   -1.57054034091855
C          -0.19859426675398   -9.65721612851500   -0.90095489376631
C           1.21743156956774  -12.44462222831295   -3.22037807475410
C           0.64593183715777  -13.41228864630285   -4.24954697423823
C          -0.88942598164690  -13.24496676462992   -0.94021503666486
C          -2.04635528328135  -13.91780535809830   -0.50442343414632
C          -3.26539521031649  -13.63942711669370   -1.14169829769532
C          -3.34763434043523  -12.72792587967744   -2.17458792159556
C          -1.89825705826806  -14.84383435720890    0.58229042559217
C          -2.83042693512536  -15.67645302223401    1.11199921207524
C          -2.62368762685749  -16.56023721858695    2.19866519148127
C          -1.55185939064961  -16.64731901095069    3.05025136582720
C          -1.41354689435110  -17.59010202768207    4.10624092211961
C          -0.27443418231514  -17.46932400813419    4.84034559602116
C           0.56526964603105  -16.41279801002532    4.42047168654324
S          -0.14820582146956  -15.59171512380205    3.04779879585800
C           1.78063908071753  -15.99579158944925    4.91443347590300
C           2.57081702190675  -16.53427826197303    5.95613055527380
C           3.73719845208692  -15.86893263519087    6.16198744502604
C           3.95045369385407  -14.74674458204629    5.30739547535368
S           2.57374418417714  -14.59399653888432    4.22354869060077
C           5.06507896152967  -13.95983846574260    5.31470213443022
C           5.37940573994593  -12.80528756316444    4.52723104736127
C           6.70472365642775  -12.32372443498840    4.55073585502754
C           7.04779670590637  -11.22341721369276    3.80914111990235
C           6.08235295236632  -10.55112126159017    3.03711423197890
C           4.77043468709068  -11.00260432801661    3.01421198273556
C           4.43277709007732  -12.11792941324180    3.74956604668141
C           6.71256846150424   -9.42911499873524    2.38236071303783
C           8.07275295268632   -9.40788725028512    2.73792014662822
C           8.39613805879833  -10.55343717222844    3.66965411547569
C           9.43016335589633  -11.50679235888793    3.04174711443143
C           8.98815495681403  -12.04945529503174    1.68795575539177
C           8.91721361859018  -10.04524447620538    5.02608805324129
C           7.94419799071144   -9.09463667116258    5.71316739260557
C           8.90568818028319   -8.43586686670723    2.24372809353660
C           8.39484195267863   -7.44454442868554    1.38855858957254
C           7.03611585253027   -7.48166882406206    1.04484513246343
C           6.19660742380134   -8.46256026040519    1.52969949384034
C           9.29603486860351   -6.43245752806010    0.89538866162333
C           8.95542979008665   -5.31162709097879    0.22717675954657
C           9.91310325545325   -4.36494108970234   -0.25587754736925
O          11.22432890253251   -4.67885835746228   -0.24500270006455
C          11.91448219151102   -3.66346409131356   -0.82219292222971
C          11.04141004824440   -2.67877178387039   -1.21545962668641
C           9.74760046924793   -3.11047445109400   -0.84282706920036
C           8.52410702841047   -2.32229739419149   -1.06269531018571
O           8.40639463592625   -1.51642678546159   -1.94373709433301
O           7.51429912147814   -2.53389631460269   -0.18689273185585
C          13.34457964909060   -3.79031520235181   -0.91712473029161
C          14.14926253725682   -2.88822270079173   -1.47170808779627
H          -0.96454670125471   -4.45532931574110  -10.46527426894177
H           1.72167608342141   -6.74911635045044   -8.00508959416098
H           0.95762982295973   -3.49517309103160  -11.03196830084048
H          -2.18226183335208   -7.53575561644347   -7.34140734742271
H           0.64709321886690   -8.21136004015533   -6.38878714775941
H           0.93057460024647   -9.60326045666707   -4.57857312691788
H          -3.89809595012892  -10.73495723728731   -4.52449557038320
H          -3.02960044935208   -9.10850779922553   -6.13555017732365
H           1.56648948236593  -10.00106459711033   -2.07922428468336
H           1.29792943184009  -11.19738799457598   -0.80911229650869
H          -0.69148562567927   -9.02898849284774   -1.63974388547882
H           0.30978462568955   -9.01389114943880   -0.18634799534332
H          -0.95980147813805  -10.22581816947533   -0.37136786672914
H           1.70284504903473  -13.01003016854881   -2.42209389418781
H           1.97573681846944  -11.81772690613160   -3.69439155083689
H          -0.09705436796191  -14.06293006949017   -3.79347911142940
H           1.43935974526131  -14.03156148110389   -4.66173416712014
H           0.17263448672863  -12.87055325288266   -5.06560805521132
H           0.05321970219014  -13.45076029481311   -0.45314187982691
H          -4.16120371609311  -14.14385803570344   -0.81291714621794
H          -4.29711239492808  -12.52630492598211   -2.64859224331743
H          -0.89765906913734  -14.87583697357201    0.98777265127693
H          -3.81938145602476  -15.71115380295932    0.67423792268114
H          -3.42550908220210  -17.26016607598202    2.40162156968988
H          -2.17051460676437  -18.33425929262602    4.28454766065955
H          -0.01859225931415  -18.09998165623559    5.67336022024588
H           2.25831620326001  -17.40014098314298    6.51277655055836
H           4.46523931712059  -16.13993555347761    6.90683192273675
H           5.83824647110392  -14.26772548795575    6.00966211003771
H           7.44257958547928  -12.83971734625187    5.14921511185235
H           4.02052339374312  -10.48749913069562    2.43270031086155
H           3.40768228934425  -12.44872297368746    3.74407054785216
H           9.59982402851856  -12.33933147341769    3.72792286785727
H          10.37502775611423  -10.97119995017169    2.92655048937942
H           8.05744642999941  -12.60448793348452    1.78224952704240
H           9.74768336234669  -12.71580249477370    1.28543450610691
H           8.83243080663718  -11.23772280523944    0.98071837648652
H           9.87045301493323   -9.53634586979994    4.86726939193297
H           9.10233478549512  -10.90486810008126    5.67379676923321
H           7.75566605716424   -8.22233939693826    5.09107132127921
H           8.35525488795038   -8.75859067974115    6.66242234371278
H           6.99487063596903   -9.59002125884582    5.90427772906054
H           9.95313717982764   -8.41531436750146    2.50999494212594
H           6.63570477069880   -6.73776601610206    0.37352113961129
H           5.15433207646665   -8.47771510979600    1.24818276245521
H          10.34511108392272   -6.59263484573743    1.10896936494717
H           7.92164232622145   -5.09733888242221   -0.00135475335173
H          11.27070012917193   -1.75185559444128   -1.69704198628877
H           7.76447314854133   -3.13461877366296    0.52711617146669
H          13.74158788349903   -4.70494626578929   -0.49769541123277
H          13.77081770571052   -1.97675885917331   -1.89976681441853
H          15.21247482138247   -3.04147024779446   -1.51923488319446
