110
 SCF done       -197.532038157470          0.000620840006
C          -9.20101377790674    4.69915430739729   -6.90532956503425
S          -8.95687014412505    6.08000770427013   -5.92407464303174
C          -8.61428544969302    5.08925618367252   -4.52957876226522
C          -8.69013256898016    3.74922366393253   -4.85793396025473
C          -9.02455433269279    3.53076767836075   -6.21977992824676
S          -9.13432768517188    1.99086726363576   -7.06945075896397
C          -9.95850018091669    0.86645719698393   -5.86714510193361
C         -10.84386021854608    1.58505753920815   -4.85943624376228
C         -10.12939289797582    1.81918154261332   -3.53510722763263
S          -8.41120081600581    2.42363814621506   -3.72708707684854
C          -8.33922729566935    5.76220805968679   -3.30396561188209
C          -7.82255665136579    5.21725591820633   -2.17970636199893
C          -7.62058111758618    5.98172385766903   -0.99828378103598
O          -7.07361867902387    5.37946436202363    0.09304400153099
C          -7.88419079058940    7.29839715467251   -0.67424982278017
C          -8.42298487203611    8.56032580761762   -1.17416482115454
O          -8.87843076868649    8.86330222430672   -2.24902447460505
N          -8.30940995309146    9.42409544837131   -0.08507320239315
C          -7.75803824487759    8.86201126449101    1.06152500131926
O          -7.59269412529841    9.44511514164705    2.10653268933994
C          -7.47710649654127    7.48265611339049    0.67478301201976
C          -6.97904922304352    6.27169015285957    1.11356559078045
C          -6.45292022404890    5.84930861153000    2.36827016300237
C          -6.38062202060337    6.68398060086571    3.42431257000288
C          -5.85862700271701    6.29418637027274    4.71377565719365
C          -4.82971895254192    5.39616656199984    4.78063863961857
S          -4.32328854195484    4.99033217582981    6.36489262047101
C          -5.56492406405124    6.01547759950277    7.01423186914630
C          -6.30939766573769    6.68895972455836    6.03430248871036
C          -7.37897082798033    7.51874124907594    6.45657094055462
C          -8.10883599634810    8.33534302490524    5.42158755822137
C          -9.21041072119418    7.54010488931412    4.72039798011372
C          -7.73567416967359    7.58232136521919    7.80171432267943
C          -9.03117528154451    8.23563634994200    8.21424172146683
C         -10.01484256021080    7.19202086758649    8.75013343584823
C          -6.93018650965290    6.95715019491332    8.78942782834655
C          -7.01093748305694    6.93291628017184   10.24131896513874
C          -6.02536020888593    6.14369559286692   10.78421335887759
S          -4.96382381836362    5.43022507162333    9.65677836442968
C          -5.84587367084164    6.17825395053801    8.35946314546670
C          -7.91885417068950    7.64065380500610   11.09525911596838
C          -8.18619592807046    7.31215047380547   12.38875042028794
C          -9.07470947570987    8.04232145032861   13.19692415719412
C          -9.35614828560829    7.73173316714399   14.50372469236624
C         -10.25206146567879    8.39886476820411   15.37332362276541
C         -10.31642917906091    7.86562533783081   16.62555824256924
C          -9.46799316138433    6.75189336172404   16.81503429217500
S          -8.59502436423530    6.39143972541948   15.35129425309610
C          -9.28252511725434    6.00599309606218   17.96849171039893
C          -9.90887561628491    6.16367638527946   19.22032945352770
C          -9.48328616207272    5.26972477697004   20.16166454515219
C          -8.50054938868474    4.36827474317286   19.69904399294396
S          -8.13976797108990    4.68193708513933   18.01791676535844
C          -7.87283720229537    3.37629410884066   20.43252961527253
C          -6.90002411042269    2.54544265661068   19.89350845885092
C          -6.21589669837825    1.56317906931365   20.58634124213985
C          -5.19943884976708    0.69331608824844   20.05883275575774
C          -4.73220582920846    0.64084238767015   18.76406921712599
C          -3.73397300861913   -0.24723379737909   18.31995629884644
N          -2.92627218141502   -0.94382264368841   17.89174918667279
C          -5.16959007243733    1.44648256431561   17.69516989601808
N          -5.46069006016040    2.05546023304152   16.76434818272130
C          -4.72987250429165   -0.15691176899313   21.15266031834072
C          -5.45088561392802    0.17518788136835   22.32468386233235
C          -6.40985801280640    1.25846358313674   22.01426507734909
O          -7.18474228697850    1.77423487410944   22.79803820142218
C          -5.23699590214902   -0.44766280613499   23.52862361581794
C          -4.26095389308743   -1.44956315419132   23.58102924872010
C          -3.54550594331840   -1.77396175327697   22.40629732246407
C          -3.76322115312330   -1.14288347197511   21.18664883593365
S          -2.38547664017724   -3.03711379474772   22.69246049442797
C          -2.87315168083509   -3.10941779206619   24.36479410854746
C          -3.85254231313108   -2.23527465270018   24.69416660645367
Br         -2.04151085239055   -4.33293079801607   25.51929793874715
H          -9.43489242115764    4.80363998846404   -7.94553355485465
H          -9.18224478104830    0.28646100824233   -5.36809842090019
H         -10.53996900351197    0.20405727048138   -6.50698854177371
H         -11.73517900434941    0.98457688682789   -4.66014924972150
H         -11.18126687571528    2.53829607927251   -5.27429768488985
H         -10.01540330562115    0.88681190467224   -2.98235706065020
H         -10.66836568846417    2.53893129603956   -2.91842416992976
H          -8.56730415765642    6.82100072938568   -3.30839960099900
H          -7.53661991450755    4.17864381008827   -2.12445143153021
H          -8.60520774229330   10.38893517840462   -0.12796386540846
H          -6.15571362088318    4.81290350778998    2.43201640533955
H          -6.72200630442938    7.69629772750047    3.28420753805996
H          -4.30224009248316    4.97223646958937    3.94854928163802
H          -8.53859223267122    9.22902148038527    5.87257633429723
H          -7.39459682932554    8.69993542916392    4.68779257254029
H          -9.99878666449174    7.27320167258853    5.42061841309463
H          -8.80930546228069    6.62452996347939    4.29193760618024
H          -9.64111564601656    8.13505648519506    3.91895173287132
H          -9.50830664513761    8.71912228416753    7.36720461841245
H          -8.85031615535606    9.01510248555949    8.95461047787507
H         -10.21824051483761    6.44996519810699    7.98115450494410
H         -10.95290264943838    7.66978834384151    9.02458611677334
H          -9.62317534430089    6.67637595864846    9.62267445371292
H          -5.83805232707532    5.98305193982764   11.82757108483709
H          -8.41555968549565    8.51059577810547   10.69838376672575
H          -7.73407715086916    6.43763356762990   12.83598744656723
H          -9.57525276729663    8.90166684854970   12.76936256015482
H         -10.82120272466307    9.25071491455908   15.04494505756832
H         -10.94234263327064    8.24346115564667   17.41370347908342
H         -10.64967291846792    6.92249323180592   19.39842272161426
H          -9.84256205180750    5.23335067495453   21.17465726341176
H          -8.15143362508371    3.25819189924587   21.46953468109029
H          -6.65911735965603    2.69355715952825   18.84780874107343
H          -5.80323085063045   -0.17124114289964   24.40427731468961
H          -3.18937995485793   -1.42728601193941   20.32077239778975
H          -4.27111379131137   -2.14556357325709   25.67997068145278
