102
 SCF done       -166.416799112986          0.000341704668
C          -0.84249810270267   -1.90824354031368    0.33988564332116
S          -0.59972734076151   -0.35416305498456   -0.35237913900107
C          -0.57771991744222    0.38907721466729    1.22410359128942
C          -0.73040360180515   -0.56186418230921    2.21196763607635
C          -0.87801833054666   -1.87855223739220    1.70303318269659
S          -1.03197489532400   -3.37888074475808    2.61318513526460
C          -1.98739755755447   -2.89825655906207    4.10923275982012
C          -2.96693197255637   -1.75686893700027    3.87044674395980
C          -2.42553713314249   -0.42324744848144    4.36969156681181
S          -0.66914733936658   -0.14582780342907    3.92502187585023
C          -0.42691971428488    1.78937080650384    1.41446610793627
C          -0.26046941114991    2.67215529517107    0.40512781626278
C          -0.09673684606385    4.07770106871532    0.51157769864396
S          -0.26623800988603    5.00426692090903   -0.95536697085782
C          -0.00152907451094    6.49851160808860   -0.11090322373724
C           0.21927251579181    6.27122255010584    1.24217750380562
C           0.19647502514330    4.90183117986654    1.59204191466431
S           0.53401639058257    4.19558887013176    3.17372456031497
C           1.72781308321164    5.38007161175521    3.88970563280398
C           1.03225046027180    6.45852003398192    4.70454162644598
C          -0.07787228924488    7.11553290388452    3.89983749259185
S           0.51599528039072    7.67938180573502    2.26631562644806
C          -0.04432615492587    7.75595923770096   -0.76046676801382
C          -0.16750516464176    7.89718957133931   -2.10203429475921
C          -0.22756728886169    9.09191937720861   -2.86100905788204
S          -0.54874255852569    8.91229045363558   -4.56188881809622
C          -0.49284120192864   10.63011786891087   -4.82959960699772
C          -0.26022706855110   11.30427221653744   -3.63347381899816
C          -0.06904210795243   10.43593808750684   -2.53265852361454
S           0.36704666365412   10.87089892591396   -0.87780681294738
C           1.27545871438607   12.44350014310770   -1.07957407723098
C           0.34363570799215   13.64053503341555   -0.98616824318704
C          -0.83560126360070   13.47182223711250   -1.93012451551623
S          -0.28147417424568   13.07029678704799   -3.62477699454689
C          -0.68880006712401   11.07010652585143   -6.16168405544840
C          -0.53409006181403   12.31960915868144   -6.66289770821523
C          -0.74383006774633   12.64631955836896   -8.02330119645904
S          -1.09570363223180   11.43810117060658   -9.22698864420811
C          -1.15630322186941   12.63920892485486  -10.48526978271789
C          -0.93335248673145   13.91284672688898   -9.97586789534980
C          -0.67501239103301   13.91399519079319   -8.58983189284842
S          -0.33124469362733   15.28383447348405   -7.53119953582117
C           0.52789105028274   16.43517545378357   -8.66192793895076
C          -0.43941987291032   17.38434321275638   -9.35136415149652
C          -1.57927791095731   16.62626122356516  -10.01337439145033
S          -0.97111252826268   15.28130976922525  -11.09120461827830
C          -1.41225006379241   12.29784399628670  -11.83347882755303
C          -1.56181516161228   11.03001153781255  -12.28412980462837
C          -1.83320464611391   10.68334767658195  -13.62911733243589
S          -2.09803662469328   11.88721608119289  -14.85691373553002
C          -2.33542053658986   10.66732389526504  -16.07052349948689
C          -2.20324018014906    9.39664836472743  -15.54107192973960
C          -1.93949619529842    9.40184160826356  -14.15158058203207
S          -1.69865824865367    8.03058744228063  -13.06668842013142
C          -2.76095266501758    6.75017785965501  -13.82317641598635
C          -2.00231478482175    5.90585668272569  -14.83489868275433
C          -1.28450681395023    6.77679197986895  -15.85396462964622
S          -2.40483424381626    8.00469642311077  -16.61296341662108
C          -2.61399007939332   11.00534751203971  -17.43475008972261
C          -2.78079519046083   12.24579102634096  -17.88898691998758
H          -0.92019780930187   -2.77034301484971   -0.29089215008212
H          -1.27371078032381   -2.64881153664122    4.89423729070204
H          -2.50249841717596   -3.81956570326084    4.37798177116895
H          -3.90484618576659   -1.96008659142386    4.39356258486848
H          -3.19927947440390   -1.68476549362975    2.80496461506441
H          -2.43086374376919   -0.38106364354726    5.45867952236450
H          -3.00800440137243    0.40981736538034    3.97510129273265
H          -0.46266954674433    2.11603897927159    2.44256962207291
H          -0.27628992121849    2.29735012820858   -0.61185635236163
H           2.30061087373390    5.80390455170216    3.06637536675369
H           2.38831962091256    4.77812517373308    4.51234457109847
H           1.77190421397338    7.20607143949094    5.00012091527855
H           0.59963975609585    6.02253007111190    5.60787132968750
H          -0.45107609978265    8.00974796136118    4.39709670963494
H          -0.90637361844304    6.43077142776182    3.72578031961252
H           0.02974397150917    8.61326030267796   -0.10991411555535
H          -0.24289954220879    6.99359209596411   -2.69695796345790
H           1.78937668874092   12.40587187196954   -2.03865091142048
H           2.01275457413160   12.44953061010934   -0.27795580729470
H           0.90229112607913   14.54322556563379   -1.24330688187397
H          -0.03254572495038   13.74330967093141    0.03413309690400
H          -1.40292068443572   14.39640611109988   -2.02759545170184
H          -1.50247266508460   12.67507776880750   -1.60459312479455
H          -0.97822212562407   10.28396120909744   -6.84995580759312
H          -0.23112611224726   13.14196809717297   -6.03338810346215
H           1.07772466927146   15.83099607143065   -9.38190450810760
H           1.23551041110315   16.97989420203957   -8.03832875893163
H           0.11079240635768   17.95856775835936  -10.10031818881092
H          -0.86147811327265   18.08017553337064   -8.62254753907512
H          -2.16119767604589   17.27909903429901  -10.66252972033816
H          -2.24059317909197   16.17377110033922   -9.27599505967567
H          -1.47613959531422   13.12517518200485  -12.52913168390420
H          -1.46390894829557   10.20250783434677  -11.59257118892328
H          -3.60678489364819    7.26087711626880  -14.28109687796464
H          -3.11752993001119    6.14229478197563  -12.99273553642090
H          -2.71265857049677    5.24812482066158  -15.34127437697423
H          -1.26159355071725    5.28707859374229  -14.32305631489388
H          -0.90277994573976    6.18021955850883  -16.68150893106298
H          -0.46127062874119    7.32754797523503  -15.40131731459923
H          -2.68667760090614   10.15789772653638  -18.10419767831672
H          -2.72477944756476   13.09680322982031  -17.23018628195776
H          -2.98014338287749   12.44318428664006  -18.92676953044564
