72
 SCF done       -132.911473888890          0.000200635818
C           7.10161326198544   -5.94368737004871   -6.82537920182762
S           6.89645995228590   -6.07015496227493   -5.11466029503501
C           5.74739161335935   -7.37963344490742   -5.23936798428065
C           5.55149889752738   -7.68541385722139   -6.57580034558398
C           6.32692413101158   -6.86080142881708   -7.45890482719355
S           6.01249520624200   -7.31692765777473   -9.10605054559462
C           4.90238245242910   -8.53592195989354   -8.47071424587638
N           4.77283492503900   -8.60595489844622   -7.20645780228321
C           5.17566322607877   -7.95148761212047   -4.07691307066001
C           4.28512036663774   -8.97363772349218   -4.11252107075621
C           3.70595853807616   -9.54753977609952   -2.95602754496724
S           2.59146127053489  -10.87399224297981   -3.09937004854726
C           2.35355923750198  -10.98950430369005   -1.40861827069202
C           3.09428165603138  -10.05184948823598   -0.73201434968039
C           3.86171440195250   -9.21635685480121   -1.61012641583808
N           4.60070124938048   -8.19653408930633   -1.11667612360894
C           4.60529639983538   -8.02912236147701    0.17550812829151
C           3.93180626415031   -8.95587937670971    1.07609159681883
N           4.06302748137920   -8.83316342917806    2.42460950564024
C           3.50561790518990   -9.83169190644019    3.30427900366207
N           3.17875438798917   -9.91969572313034    0.61570289327518
N           5.35754962527952   -6.96984373100575    0.67342232770683
C           6.12854027311492   -6.23207645031229   -0.32027049928337
C           4.83193653406130   -6.24047412788408    1.74007512572370
C           5.60003860844786   -5.75260715723443    2.75331156575761
O           5.06252798745287   -4.98964908521909    3.78167542957328
C           3.70027954763265   -4.91199306804068    3.78553375452534
C           2.90191168076706   -5.47182484720576    2.74604271999321
C           1.57287878300139   -5.28964403357095    2.94054345242147
S           1.27145221294190   -4.42492965937145    4.39903876685022
C           2.95708916154457   -4.31545375408693    4.74940095949006
O           3.46301214940432   -6.10372920354887    1.67202946932246
C           7.00019371868215   -6.01396622914647    2.85680326433833
C           7.75666860134005   -5.58096720782702    3.89503012326599
C           9.13853267353540   -5.82653680968274    4.06966549685337
S           9.83935666363144   -5.50023519545943    5.63358810544049
C          11.42965878825866   -6.04224170864434    5.15329889789029
C          11.38287598669247   -6.42666257412184    3.82413551542149
C          10.11397411016588   -6.31427407101523    3.19989889176967
C          10.17448610415935   -6.69382671511520    1.82851259378285
C          11.41042538460079   -7.08330835645268    1.43858685945400
C          11.84731426769198   -7.53539062519732    0.09395347053759
S          12.59292696021907   -7.01436350726231    2.73812859646643
C          12.51509521364652   -6.05933519768846    6.05666588625976
C          12.39289778236979   -5.62635774463620    7.47164743381970
C          13.56709099729254   -5.76714391621607    8.08009663015611
C          14.55303843343299   -6.30795024801598    7.08511649730521
O          15.71993651470159   -6.56190838464361    7.28696174595939
C          13.79594003715374   -6.45883067016846    5.83624661231648
H           7.76790922010124   -5.21267606357150   -7.23386328677485
H           4.37818620349379   -9.17131569371461   -9.15719398044323
H           5.47156515685019   -7.53901015765939   -3.12467463885650
H           3.99148674848079   -9.38788730339300   -5.06709955807130
H           1.69768587456120  -11.73123104904083   -1.00146220273116
H           4.87732772556730   -8.34486773143483    2.76414230133298
H           4.15301944935562  -10.70961752236626    3.39234725142435
H           2.55133483742461  -10.14780534286642    2.88992076520964
H           3.35753913662808   -9.39226814394300    4.28957733233939
H           5.47355533114426   -5.81944024099234   -1.09151776636452
H           6.82730889554126   -6.91862136683398   -0.79560559087870
H           6.66670768328950   -5.42610659425493    0.17137804995612
H           0.76664053997710   -5.60749783071806    2.31349184586597
H           3.29941110276453   -3.81615784148697    5.63125130805641
H           7.42277424100437   -6.62836313892340    2.08043390591279
H           7.27211653182005   -5.02427684580226    4.68523602084379
H           9.34039357716847   -6.65950359511550    1.15238273624977
H          11.01406940419782   -7.50692318503621   -0.60391824271952
H          12.23515596484652   -8.55274166376913    0.14100227672376
H          12.64533721463668   -6.89536048443180   -0.28136889543178
H          11.46735772713197   -5.26490054279998    7.88426594183911
H          13.82500245525151   -5.54964140906487    9.09879013745951
H          14.22284335291863   -6.82966150695735    4.92481561068558
