102
 SCF done       -172.426900738648          0.000169248253
C          -7.13961702481694  -11.93762005104321    8.36654209629947
S          -6.37895063595343  -13.42108666916116    7.91416329485637
C          -5.03653993574593  -12.62199971325751    7.13527625908325
C          -5.20137995591146  -11.25058381590195    7.23994219265343
C          -6.39889790330226  -10.88281737221746    7.94087848386912
S          -6.51867237274752   -9.15077754591282    8.01925576929098
C          -4.99399216572580   -9.08673280938791    7.12908464359630
N          -4.45664239707561  -10.19570273634624    6.81013064433420
C          -4.00345362612060  -13.37493842667540    6.52217027688274
C          -2.94455897208820  -12.79376101100028    5.90669654120083
C          -1.88927922575536  -13.47584144691529    5.25245948309424
S          -0.59775208661326  -12.55519765535577    4.53952555693233
C           0.20585573526957  -13.98261059508796    3.94686965492131
C          -0.50294771164427  -15.11863462906810    4.32049884791841
C          -1.68228460949528  -14.83630722626435    5.03861971029161
O          -2.57984039346929  -15.74587330195660    5.51107965632886
C          -2.47209403075085  -17.05548255651879    5.00112449050333
C          -1.06842712209691  -17.61385307544166    5.15572846918870
S           0.04846494436379  -16.75888137612157    3.99664869321932
C           1.38762973683658  -13.80459626759582    3.18886374477350
C           2.04307091613877  -14.75977280248916    2.48222255607882
C           3.19637149847360  -14.52588769927463    1.69349299247268
S           3.79915899373385  -15.80097914861921    0.66630013500421
C           5.04415337154358  -14.77865366244394    0.00436154931977
C           4.99003752835211  -13.52031125834355    0.58992345271983
C           3.96610701816147  -13.37488643609825    1.54186459081567
O           3.69919640843926  -12.25126140923505    2.26547510862144
C           4.71541971197996  -11.27352199060358    2.28696007149835
C           5.15588104779987  -10.86461370379949    0.89094238915902
S           6.09006006155794  -12.22889087183214    0.12509799903745
C           5.91976482906021  -15.17940833452093   -1.02649255663883
C           5.94051663944182  -16.41114486136425   -1.59669870380039
C           6.72751202843672  -16.71607269653606   -2.74339232616199
C           6.84825123050420  -17.96988652915059   -3.28505472328376
O           7.40722197405963  -18.19066506743871   -4.53562454754079
C           7.91802537803631  -17.09164142868604   -5.15300908761846
C           7.87530285755616  -15.80170196424664   -4.54690374756517
C           8.45409692621583  -14.84324684486537   -5.31064138314719
S           9.06143726744694  -15.50025798333741   -6.78660560487098
C           8.52660374317393  -17.08522398133605   -6.36430168926594
O           7.28864929357067  -15.59254762524041   -3.33865672945409
C           6.42939572735334  -19.20435682380662   -2.69066412178364
C           6.38727048234482  -19.48916528537099   -1.37206745899337
C           6.02683335865056  -20.76665903172755   -0.81128947423794
C           6.42137968986249  -21.06709249350717    0.47306091396952
C           6.14799282802270  -22.33177362941321    1.03434488107745
C           6.46588165015555  -22.89115116530808    2.26278558360508
C           7.21965481898814  -22.28938612136772    3.40405558087579
C           8.63094094790859  -21.83556271015189    2.98862682548789
N           9.53302315122616  -21.93931296023062    4.12368843044043
C           6.41691632385013  -21.14018075772390    4.03730303396742
N           5.21166428257415  -21.67728559381886    4.64750046782055
C           5.92376470646669  -24.22946435329980    2.26377390885371
C           5.96017671292592  -25.19929610181036    3.19615680597611
C           5.32687345379529  -26.52418987343565    2.97178780863021
C           4.64335177648519  -26.67283660695302    1.64581298183821
C           4.62850579648089  -25.69879046451764    0.71904743945862
C           5.25540993322657  -24.45505579785798    0.97609454435221
C           5.40149758035482  -23.30136317343127    0.23640210381344
C           4.97431789024150  -22.95112173600369   -1.06667833808419
C           5.28339340595405  -21.73219796096914   -1.57074120076939
C           6.31115842174480  -27.66550405670193    3.12807449019111
C           7.62153844768508  -27.54496840310199    3.04035426845691
H          -8.06419961103785  -11.95010273717204    8.90523196529480
H          -4.57194684821430   -8.13122470766122    6.88683725480336
H          -4.09528840381417  -14.44893614259013    6.56147927068615
H          -2.88336467457658  -11.71392312665219    5.89581649761988
H          -2.76468907144363  -17.07696871924018    3.94193978607756
H          -3.18850521159927  -17.64302248915462    5.58179723743710
H          -0.70305590060622  -17.46480714842682    6.17241966657634
H          -1.03056821228188  -18.66900050792248    4.89516151151978
H           1.75641081015750  -12.79055270560414    3.15663821579542
H           1.66816170248559  -15.77288501979929    2.45792786220734
H           5.58185965877098  -11.63936516235668    2.85554008512896
H           4.27447559540487  -10.42358384686802    2.81468297810652
H           4.29243170313241  -10.63671545291729    0.26498725853790
H           5.82837487572782  -10.01061600066778    0.92503795561490
H           6.59912476797377  -14.41604150326269   -1.38195383443776
H           5.28729633936762  -17.18611453440935   -1.22590482786496
H           8.55759247053627  -13.80070922335294   -5.09514725041356
H           8.69020885693442  -17.90977690474806   -7.02571232476979
H           6.25970562788115  -19.98763696237171   -3.41678365795757
H           6.71859956253944  -18.74299930142843   -0.66200412611363
H           6.97321178986368  -20.33309521319140    1.04197095959561
H           7.34971946371389  -23.05273179712333    4.17561537868365
H           8.58539179928900  -20.82065597548540    2.56137957257519
H           9.00718121155800  -22.50739611877168    2.21171304233325
H           9.23665505181044  -21.31683503562265    4.86803574570165
H          10.47400250531767  -21.67371091122627    3.85455418523295
H           6.21049583902089  -20.37570065174123    3.27037612391643
H           7.00496952158599  -20.67337692972871    4.83367887711496
H           4.65076715768673  -22.13927106885690    3.93788747453828
H           4.65423407566596  -20.92920578581256    5.04560354593614
H           6.45095820706106  -25.05801783163817    4.14931115738161
H           4.56953793628649  -26.65810285492332    3.76221058906023
H           4.17202431414425  -27.62677375676527    1.46182254017386
H           4.13368763186617  -25.85006013922093   -0.22987424498689
H           4.40504040092047  -23.66368707363804   -1.64617451546711
H           4.94683942794131  -21.45656136094805   -2.55802953390593
H           5.85540585280115  -28.63537086746638    3.27737568149921
H           8.10046927516724  -26.59471970032671    2.87415731883371
H           8.26972414390034  -28.40029504942081    3.13045684816784
