92
 SCF done       -167.876611105825          0.000720970989
C           4.00484846776055   -4.40064184311912  -10.68466081680537
S           4.52111315515177   -5.23143411831694   -9.26153941502183
C           5.13392234432318   -6.60124037797273  -10.15992186280273
C           4.92300305853531   -6.38747401754926  -11.51144843488957
C           4.28403327426928   -5.13406882954402  -11.79251938351189
S           4.07321377494707   -4.96585527716519  -13.50922493654321
C           4.83970250011792   -6.54920651926074  -13.67668708479521
N           5.20870512008224   -7.13672081835417  -12.60890958635202
C           5.74630901696829   -7.72790417142674   -9.56273657437597
C           5.95972555943661   -7.84211128254783   -8.22792469460510
C           6.55222901325147   -8.90642679294086   -7.50973663653796
S           6.97983990811404   -8.59016760346741   -5.86306615283495
C           7.62276356060214  -10.17339677476055   -5.59138856955757
C           7.50909207435027  -10.94319477878379   -6.76319794730150
C           6.88428099520013  -10.23169616867184   -7.84211149927179
C           6.60614784534727  -10.90338162741283   -9.04751340556233
C           6.97723950551621  -12.20847823908873   -9.18925205244647
F           6.70756356421919  -12.86090166932922  -10.33132586710143
C           7.62737006165078  -12.89456249272703   -8.14410633135333
F           7.97392990424537  -14.18135847296129   -8.32741082643343
C           7.87886084300979  -12.28964226304816   -6.94784518310306
C           8.04037778935002  -10.46215990630108   -4.26711477195197
C           8.69311094110663  -11.54493765081398   -3.78015599487058
C           8.86385524574502  -11.73515412107234   -2.37589369325788
C           9.48324454610987  -12.78290100151112   -1.79711563087657
C          10.15416000054901  -13.87781436776256   -2.56261878945194
C           9.35279696569386  -12.98867068748642   -0.30978511330684
N           8.30179150358420  -13.97748734034697   -0.11970645049593
C           8.55333378360675  -15.29672358281897   -0.01249658933577
C           7.74735068344638  -16.25935269135697   -0.54120458565991
C           7.95968884640266  -17.63963057342251   -0.41267927396459
C           7.37714976319153  -18.56514583996909   -1.24235577955157
C           7.56238315755669  -19.96577622709703   -1.26044229139876
C           7.00788838320441  -20.59072273720271   -2.33822403186013
C           6.36683721165784  -19.71042658596100   -3.23830383575008
S           6.39143435775784  -18.08212080826305   -2.62256250548819
C           5.90688239961068  -19.97876580839872   -4.51646476169465
C           6.01325090142720  -21.16905723842861   -5.25976118955189
C           5.73007004455870  -21.00821720832343   -6.58508934593093
C           5.40786470228549  -19.68294867919436   -6.96044996335777
S           5.32990629787004  -18.67873135753043   -5.54138377370442
C           5.16848768542400  -19.27742071919735   -8.26598495489015
C           4.95095199187859  -18.02154421343048   -8.81342643786591
C           5.07226276041084  -16.72590970527030   -8.33129622136817
C           4.32622869700508  -15.66413411680079   -9.04833640420337
O           3.72403193834597  -15.77376470331567  -10.09513737048536
C           4.41900590638891  -14.46093801824151   -8.19113725660948
C           3.85571519571943  -13.23137417997549   -8.35505731715429
C           4.01148885612399  -12.26122155244754   -7.33590034287260
C           4.71991505428584  -12.60781211719012   -6.15091975435583
C           4.80573341157084  -11.66587521125154   -5.10927765531246
C           4.22614358422209  -10.43776510223864   -5.26331551604423
C           3.56233707202649  -10.06197759923622   -6.43601166648451
C           3.45929923361145  -10.97108820276044   -7.45343943207287
F           4.30161865888801   -9.54209453918006   -4.25443071617262
C           5.33657684153202  -13.87702247613668   -6.03353045562904
C           5.21016164046876  -14.77823850911158   -7.05195482539748
C           5.76580172015292  -16.11929228156188   -7.24414924484326
C           6.91737869058783  -16.56888413056839   -6.62361302388856
C           7.62961327522833  -17.70266265092843   -7.05506795993142
N           8.23949066897113  -18.61618395832142   -7.39155733221121
C           7.57351752135774  -15.85342354446111   -5.61342677176230
N           8.13842311647642  -15.29862928504916   -4.77725877620842
H           3.53744339144782   -3.44127814414183  -10.60160593043372
H           4.96964932652096   -6.96321834902248  -14.65715096382784
H           6.06431560579476   -8.48068027356544  -10.26626083423479
H           5.67196637251198   -6.99580936431034   -7.61266812329444
H           6.08302334661189  -10.42107900217278   -9.85370138669495
H           8.33605189725564  -12.86780335174537   -6.16480955183697
H           7.76287253390635   -9.69262564783633   -3.55408904597860
H           9.06400874535345  -12.31946362470680   -4.42863507030544
H           8.41301268612669  -10.98260380472932   -1.73915398933508
H          10.58748024667605  -14.61426069194820   -1.89016721046709
H          10.94969430563165  -13.47252826418107   -3.18614241406784
H           9.45112367268199  -14.39043097965920   -3.22008135106042
H           9.05892433159143  -12.06372079863972    0.19423321184487
H          10.27425722627384  -13.36473830989200    0.13826465598747
H           7.45776090707880  -13.75006888496320   -0.63365439548036
H           9.44927876594056  -15.55984066240983    0.53489488751114
H           6.92625161035327  -15.94761180233777   -1.17453142773555
H           8.66371973281183  -17.99631598355776    0.32737189561067
H           8.12041429893066  -20.46707380312011   -0.48894415697092
H           7.07051085476757  -21.64718013937862   -2.52663914084063
H           6.33268281406544  -22.09450778756001   -4.81567132978489
H           5.79798350007596  -21.79252493137439   -7.31760802933294
H           5.10565642182824  -20.10124606627193   -8.96775779544740
H           4.53713364287659  -18.03647977908290   -9.81890429871189
H           3.28936777657329  -12.99980334244749   -9.24452094754018
H           5.32812713004481  -11.91299173229984   -4.19800699315675
H           3.14145983540471   -9.07192340214857   -6.51089317664007
H           2.94268802258126  -10.70884911031719   -8.36441453479812
H           5.88321640543205  -14.10554659810449   -5.13230748400959
