96
 SCF done       -165.824354489307          0.000224737189
C           3.63466907034189    4.80738105018204   -3.42352261570648
C           3.36640384610415    3.94021704684685   -2.38950947920185
C           2.41596853313865    4.47487157699837   -1.44753524743016
N           2.03304861915183    3.75835481859966   -0.37369742741686
C           2.57316897077461    2.57823945033992   -0.24705614876727
C           3.51609592795671    2.04058115874304   -1.17083807596365
C           4.11250156388904    0.68661903975129   -0.93764493288050
C           5.14285794967255    0.74031434552583    0.19161355748341
N           3.90450247065047    2.70807531513220   -2.22412019305908
C           1.97386456412340    5.75872855556145   -1.79058840975179
S           2.74777078566146    6.26009222835563   -3.26222741864769
C           1.05427427703756    6.60759308990593   -1.13842769486397
C           0.40612297084487    6.28298146564785    0.01303450911868
C          -0.51956471170808    7.12974437232895    0.65535782424426
O          -0.83451780753018    8.35857811203392    0.16276723323052
C          -1.75589745413344    8.92631139677840    0.98462920697094
C          -2.03763533053871    8.04212947817004    2.03090203936712
C          -1.25242689989209    6.89996212503823    1.82363649040596
O          -1.20045344723006    5.78719106154889    2.58298185758181
O          -2.90105839778931    8.20649159338726    3.07005783929827
C          -2.29509588410939   10.20102383900072    0.73613015676300
C          -1.97291586781161   11.00858486522950   -0.32117004031749
C          -2.57746296927237   12.25653332241785   -0.51422220280607
C          -2.30139691433546   13.09948584287137   -1.56442166948949
C          -2.89691125660265   14.33591703042080   -1.82713392940878
C          -3.89588914257520   15.00066826715333   -1.13738179730897
C          -4.44490475712246   16.24534416946842   -1.51608412938152
C          -5.43572793423126   16.71001632234375   -0.69609838116302
C          -5.72250302917711   15.85714281238602    0.38344855501834
S          -4.69338466462037   14.44567294782324    0.32156919705649
C          -6.65740835288062   16.01701268299109    1.39599872194405
C          -7.56790751503237   17.07167732917610    1.58641502644734
C          -8.36092751029559   16.92449589276400    2.69077479353246
C          -8.11507911880962   15.74997192146478    3.43088790575812
S          -6.83429174717337   14.82636487682636    2.66559885463006
C          -8.74590165169193   15.34012925001167    4.58803295236441
C          -8.43466017512380   14.17278118100466    5.28354431829658
C          -9.05702193219664   13.78454119930914    6.44239414100421
C          -8.73163073665927   12.62688522294014    7.16387736460287
O          -7.75472101660929   11.76965567403129    6.76140221147998
C          -7.65807816247785   10.76591478736029    7.67490337945257
C          -8.59984390722460   10.98188955128458    8.68524924315937
C          -9.28355019180582   12.15921859405749    8.36362336344556
O         -10.28060090703056   12.74966414004962    9.05922910420742
O          -8.85691939475299   10.23298463927730    9.79388277556479
C          -6.71912608432287    9.72339337363076    7.53988606407739
C          -5.86853354366033    9.58362067543063    6.48231470439426
C          -4.90043549753734    8.56429342531595    6.32712088011840
C          -4.58425216025144    7.60881343656716    7.24524374206006
C          -3.60733587216673    6.61128976042913    7.06692447631329
C          -3.22753255509249    5.64630730451790    8.00666865550243
C          -2.19191010689214    4.76889004066947    7.52835615676101
N          -1.70899934441792    3.77370136506729    8.31333925497282
C          -2.23227385141136    3.68859063103930    9.50057108674198
C          -3.25140006717179    4.55976007031126    9.98532742291394
C          -3.76940023254281    4.41718488700676   11.38292016869446
C          -2.74990316131045    4.95290947982499   12.39035508885932
N          -3.74339438950996    5.52113810815874    9.24243976725251
C          -1.79718510754011    5.06878786339557    6.24543280059362
S          -2.66659471696599    6.40634488323628    5.62119530269664
H           4.29758180711487    4.66213672533555   -4.25142958098598
H           2.26033914981764    2.00047924272803    0.61271574288805
H           4.59331020941727    0.35719147220437   -1.85911987073056
H           3.32051372255270   -0.01903577989067   -0.67613780007466
H           5.94286989425857    1.43116035679908   -0.06409834524741
H           5.57347610518016   -0.24483739657066    0.35331071349865
H           4.68239226087666    1.07404786392042    1.11903162870493
H           0.86580056725326    7.56734538367772   -1.60020352258583
H           0.58491722332519    5.32863255399799    0.48366644452231
H          -1.81236211694864    5.90059679584270    3.32317681295657
H          -3.32477051027070    9.06899115439631    2.99594722473290
H          -3.03185731297326   10.55469343445467    1.44721667774122
H          -1.23520213251862   10.66355162298757   -1.03178482723784
H          -3.31156265542019   12.55042810604839    0.22122532018234
H          -1.54856455322244   12.77736282207030   -2.27342085505447
H          -2.54313058306299   14.86002406962115   -2.70716634326755
H          -4.09456250018007   16.76619542418883   -2.39029206037181
H          -5.95761931914241   17.63818189580523   -0.84589008542573
H          -7.62016804223763   17.90730098439392    0.91150322677596
H          -9.11413979872990   17.63040115157946    2.99414007717432
H          -9.52704910952376   15.98036587914270    4.97692704945456
H          -7.64883693475255   13.54260175259406    4.88795980338762
H          -9.84707179525744   14.38526594920745    6.86844205746395
H         -10.45639643542958   12.21156496380488    9.84194902872424
H          -8.27269130165254    9.46739945174645    9.80693344953304
H          -6.70084380760862    9.00088678794162    8.34444805029470
H          -5.94530329706727   10.31473132049912    5.68960558665840
H          -4.35202800361295    8.55267467090600    5.39312479957263
H          -5.07280576684377    7.56967229652311    8.20842339895460
H          -1.85568508830575    2.89434224119841   10.13249375076171
H          -3.97021194833134    3.36399537182990   11.59246643733815
H          -4.69992158829681    4.97960734123577   11.46780735789759
H          -1.81419802028169    4.40223465406602   12.32164909552727
H          -3.13559217761835    4.85609022672906   13.40233307365451
H          -2.54613679754936    6.00333701662120   12.19512438718986
H          -1.04933341308031    4.58130324540790    5.65378369449175
