88
 SCF done       -162.818657368860          0.000860802938
C          -4.99495415021161    1.93591139055478   -0.42966039302797
C          -4.39523895918018    0.99304879823426   -1.23506093636748
C          -3.32642467248015    1.53486511201520   -2.03871876345974
N          -2.64374753145294    0.72880960409917   -2.87039487150151
C          -2.99913044177334   -0.52704468738811   -2.90724337994789
C          -4.05389034139821   -1.06418479842064   -2.11981968271682
C          -4.42922458076011   -2.50851523305814   -2.23626650998633
C          -5.20371458596825   -2.75925467331825   -3.53166295584233
N          -4.73730915084528   -0.31282707173472   -1.29770430811149
C          -3.12906158747701    2.90927780611869   -1.82212783327896
S          -4.28147922825622    3.46609125132984   -0.63113162814735
C          -2.22882506863958    3.86239788485511   -2.34614011398557
S          -2.32529737928864    5.47247851928604   -1.71126050723048
C          -1.04781401627765    6.09058162976680   -2.72710137543794
C          -0.55569048189091    5.04892124729010   -3.54970237861260
C          -1.21624150356714    3.79848465598885   -3.33193725124073
C          -0.83480917715904    2.67016043491158   -4.07598538241724
C           0.16478233800071    2.78550313410688   -5.00123639343367
F           0.53819089391696    1.71107135169126   -5.71930409633160
C           0.81284407876705    4.01419206061287   -5.22069731725053
F           1.78981400033545    4.09476716435789   -6.14234384314438
C           0.46275535835874    5.13085788247660   -4.51074250827229
C          -0.76616560799067    7.44465535539330   -2.55742257618090
C           0.16548462378870    8.26838028671762   -3.15573699282645
C           0.30409957703069    9.63257497331788   -2.90450575477863
C          -0.45172135693241   10.46881905637616   -2.09136027263782
C          -0.20718050092642   11.84141982200734   -1.88528187342036
C          -1.08753908720414   12.46370610468235   -1.03636393183817
C          -2.07593518264785   11.60804429846560   -0.53214717989422
S          -1.86315515435380    9.99924374849367   -1.17090096275552
C          -3.11092100409417   11.84408584317381    0.36810009998142
C          -3.47232927624994   13.00930885892942    1.05594813937492
C          -4.53968034507731   12.83757192316063    1.89855184723376
C          -5.06896248930808   11.52956931899305    1.92666357033131
S          -4.16982398596422   10.52690071535540    0.81282753614473
C          -6.18425421745565   11.17063301286583    2.66758852815959
C          -6.87948584192702    9.97906992805119    2.85946222550732
S          -8.47246854424757   10.16458108106353    3.56158965642320
C          -8.84366189186466    8.46885797919307    3.49905683642071
C          -7.75941741288531    7.76673632157811    2.92749797223960
C          -6.63917454785073    8.60032751357204    2.61451680965504
C          -5.44813830405225    8.00170432581039    2.18170411791609
C          -5.40728723419214    6.65289944792072    1.95161134746750
F          -4.26197381142229    6.08264122213108    1.53739030155694
C          -6.54919208685784    5.85559951619220    2.13721682571640
F          -6.49742715964687    4.54349585404467    1.83852108007361
C          -7.70569458209616    6.39353656186477    2.62982994695677
C         -10.07852820294460    8.05975575993366    4.02939012973633
C         -10.47866465410723    6.79908956986550    4.36535294547259
C         -11.73899790406923    6.48860599392833    4.90330005622378
C         -12.15594359797680    5.22159835676303    5.33098628106132
C         -13.49639273592717    5.21499207402575    5.84756746760489
N         -14.05408236177725    4.06865406097391    6.31180956331001
C         -13.29957114934959    3.01217964284256    6.25292067415647
C         -11.96706138429321    3.01061016378775    5.73924571565464
C         -11.17984875114693    1.73618753667815    5.71507605029392
C          -9.78759174449577    1.91456713630908    5.12699444859785
N         -11.40965679422454    4.10543754704024    5.28427140006685
C         -14.08271971635990    6.45941272588310    5.80495783927651
S         -13.02588254774154    7.63405972211474    5.14973923435915
H          -5.80414666277532    1.79723405145363    0.25758402678454
H          -2.43410893395395   -1.15974682204649   -3.57858644112675
H          -5.04913553375292   -2.77486607673820   -1.37998286924260
H          -3.52468163344503   -3.12072070240193   -2.22739485915791
H          -6.11350721772807   -2.16381130074034   -3.54521154617383
H          -5.47493392116806   -3.80922679162283   -3.60856958011786
H          -4.60331780257473   -2.49199049084849   -4.39870179778334
H          -1.32784942780576    1.72462329638489   -3.90904135477671
H           0.97810322704541    6.05364951804176   -4.70921620256373
H          -1.40106117683044    7.89724349825701   -1.80983948414375
H           0.86288423473687    7.85442606976345   -3.86729136191931
H           1.11579933888044   10.13320192997871   -3.41864265681772
H           0.61817777886622   12.34091582710605   -2.36223944766222
H          -1.03787106532098   13.50449289037005   -0.77025830866279
H          -2.94807600728663   13.93878515508335    0.92395004433272
H          -4.95470560758955   13.62091977155972    2.50802332703485
H          -6.65509713000406   12.02055416682598    3.15190805694276
H          -4.54975212965233    8.57370331058019    2.04107855808751
H          -8.56347247204725    5.75768710753668    2.76076594864208
H         -10.77149585854363    8.86653354958319    4.24233365713146
H          -9.81938932040279    5.94924223971179    4.28529618651404
H         -13.73522732512456    2.09242957126897    6.62245229336912
H         -11.74108280823831    0.99518857330702    5.13764176238312
H         -11.11042747524467    1.35596681204717    6.73909607838187
H          -9.85477662525362    2.27484110878077    4.10453303072344
H          -9.25140332898043    0.96915639625293    5.13345168822344
H          -9.22655819940768    2.64314476746547    5.70502017446420
H         -15.06643376450016    6.73599575306850    6.12420440749138
