90
 SCF done       -179.752060520370          0.000421258021
C           9.06860426216438  -10.95465148180183   -5.92161643133531
S           9.86563974940691  -10.53387742650332   -7.37531216423698
C          11.28013020456385  -11.36685775469939   -6.91867844893784
C          11.14917550076681  -11.96229546317477   -5.68455129072596
C           9.85453721822109  -11.72700534567759   -5.10153104753749
C           9.53187738938044  -12.25302671811614   -3.80177723506217
C          10.50369655757213  -13.04364332540484   -3.18364639375392
C          11.77424219490490  -13.25959363209993   -3.77459605645177
C          12.10603722017993  -12.73268798095121   -4.98289055226659
O          10.30188866215048  -13.70583474435217   -2.02876591429738
C           8.23896611211891  -11.97261665104064   -3.25900185741002
C           7.86965891127640  -11.93744883922786   -1.94839359809052
C           6.55176175061204  -11.66238956729159   -1.49701075423646
C           6.28676536627511  -11.66237944694038   -0.09731624044228
C           4.98290214484944  -11.39803120135202    0.44284406177711
N           4.79305560516260  -11.39896751470645    1.76291471311719
C           5.81103705414186  -11.64791166208789    2.56372515290550
C           7.10020440402803  -11.93559766579749    2.02903967248800
N           7.30624436823207  -11.93786610705749    0.73092639561364
C           8.18182738640092  -12.22737274698468    2.89722112459149
N           9.03516446460597  -12.45703850861360    3.62628346178956
C           5.60229407577663  -11.62975417541647    3.96310399073525
N           5.46270087055328  -11.62114420058002    5.10081541544733
C           3.84982241668654  -11.13598454567892   -0.39969749011481
C           4.13699900585572  -11.08702781392245   -1.78978149783210
C           5.44670010629934  -11.35792564268019   -2.32614672053599
N           5.45540617141913  -11.23696440067188   -3.65750883599917
S           3.99362775175689  -10.83316504120032   -4.18051363551058
N           3.27031744161674  -10.77547767623611   -2.74424661506220
C           2.60366953512889  -10.97166626303162    0.19952937576279
C           1.33114134145674  -10.80698962853514   -0.32855754706139
C           0.18701822692238  -10.71904015270104    0.49196135523741
C          -0.99372627330386  -10.60536159078446   -0.19248194251105
C          -0.81765241340536  -10.60284167160032   -1.58288824432451
S           0.86563005764395  -10.72637187182499   -2.01002447259928
C          -1.80178523007763  -10.50051257597131   -2.57350895248596
C          -3.17482796844480  -10.29049580824552   -2.40454448360669
C          -3.84922374143237  -10.20002337584081   -3.59476703769140
C          -3.03731866745815  -10.33622606188445   -4.73816672601874
S          -1.38406684855996  -10.63019174929697   -4.26270702918602
C          -3.54345532002890  -10.17429511415679   -6.02215759257731
C          -2.94899887004998  -10.18513376152686   -7.27998606871865
C          -1.59126574863012  -10.50613542354047   -7.58429422344834
C          -1.06880570562795  -10.42165186928058   -8.93246494708993
N           0.25702738651686  -10.51528616324547   -9.12826772197465
C           1.03144792294211  -10.84700288677069   -8.12703633309740
C           0.48227747480477  -11.16152040061425   -6.84494512287312
N          -0.79953966913635  -10.92071085093829   -6.60831584087694
C           1.31062606883459  -11.73553888162265   -5.87196886751495
N           2.06890257412821  -12.24673499092060   -5.17203903307693
C           2.43401304193573  -10.90702799958120   -8.30795286365805
N           3.57451164726618  -10.98382686483260   -8.39416285718022
C          -1.89546462411747  -10.16374816281154  -10.04281146795499
C          -3.23722102424089   -9.82204303719466   -9.75110687076278
C          -3.75399057191751   -9.83915510994578   -8.40985960911151
N          -5.03568313410866   -9.50126422263905   -8.36870347383090
S          -5.55070121705843   -9.19160156341895   -9.86893597483601
N          -4.16392669330722   -9.47858069655539  -10.64103790728965
C          -1.39575181861075  -10.13010889339450  -11.37908476597911
S          -1.92892255992294   -8.84758148049303  -12.42488881081106
C          -0.80084344675248   -9.26693542797265  -13.62554333600926
C          -0.06728063039060  -10.38724930215740  -13.29347598231046
C          -0.43241407716563  -10.92162207983679  -12.01314763117304
C           0.09852865480875  -12.17072929852251  -11.59017512976699
C           1.06228193837380  -12.76709691767737  -12.39263189989525
C           1.49464526070483  -12.16844587249844  -13.60326363831518
C           0.93377110030251  -11.02099119460936  -14.06483097879079
O           1.60202489797590  -13.97568180040288  -12.12584005559962
C          -0.47541639633550  -12.87303158038981  -10.44291838874593
C           0.18681682481103  -13.57556540386836   -9.52884157726522
H           8.06565787612227  -10.61175133736213   -5.76786589961698
H          12.13329463140536  -11.37960237032074   -7.56672503960050
H          12.46464980564761  -13.87362398846575   -3.21815769588248
H          13.07752253863141  -12.90220008310219   -5.42022430279786
H           9.38388343409256  -13.61784232735697   -1.73618951996440
H           7.47621379738715  -11.71650665854086   -3.97991577556156
H           8.58527618520816  -12.04987474315091   -1.14367662401847
H           2.63734462734764  -11.01660443864550    1.28285793184111
H           0.26302398055440  -10.74770011019836    1.56482055717446
H          -1.95919336983561  -10.53368383690631    0.27518705061628
H          -3.63913060592273  -10.19370469243619   -1.43944420595302
H          -4.90754660587000  -10.02384738231720   -3.67640214242296
H          -4.60469223580826   -9.95140442229475   -6.05558702894359
H          -0.72585755915758   -8.68328269064536  -14.52160110019679
H           2.25506148178951  -12.69276746237115  -14.15964997457912
H           1.22437718095402  -10.59413281188557  -15.01179705736964
H           1.18671367259115  -14.35756049472498  -11.33814348416523
H          -1.55712666069240  -12.81111218671230  -10.37992225471741
H           1.26503214548328  -13.60054858495026   -9.47649231855818
H          -0.33049999250608  -14.09637409725717   -8.73954764914872
