116
 SCF done       -188.732278014114          0.000441099396
C          -2.94328227808382   -2.63917581941860    6.30490626510808
C          -1.89899488694945   -3.49904979892475    6.13972229819883
C          -2.15109079691640   -4.28499835024964    4.95971250618298
C          -3.42275723607432   -3.85481826621109    4.41642867203830
O          -4.05007499567382   -4.19582598593051    3.43150587710076
N          -3.84729228378184   -2.86813837524797    5.31146168624929
C          -1.05661168493254   -5.09227549541733    4.76387708196954
O          -0.14634410266685   -4.87691042144358    5.75986852038013
C          -0.60543523359473   -3.89961035173827    6.64709318323797
O           0.04875169101093   -3.55395164193750    7.59018178964542
C          -0.74640198142570   -6.02066037951689    3.72068845110705
C           0.50144745159721   -6.67097451205033    3.69393084894399
C           0.78798313468280   -7.51752785075327    2.65270908072874
C          -0.17675721962609   -7.75132376630744    1.65278771834884
C          -1.41174686910877   -7.11434982278096    1.67577946417502
C          -1.69101194378023   -6.24553416829645    2.70491675140921
C           0.33489350331144   -8.73993690956747    0.74086395274517
C           1.61557008092765   -9.13407235472284    1.16610980342275
C           2.04107424216548   -8.31550452662115    2.36862889655088
C           2.46315201524279   -9.19118875176856    3.55619443463531
C           1.38735896967333  -10.19958642164012    3.94413088318618
C           3.18742273608327   -7.38932516810003    1.89435149927811
C           3.67268616929736   -6.36554208310165    2.91147957259495
C           2.30099241328377  -10.11460883462410    0.48819857954429
C           1.72244890863558  -10.71811802055708   -0.64259745496434
C           0.43669835244154  -10.31000865402353   -1.03989995202775
C          -0.25579817568478   -9.33107184656679   -0.36739166711734
C           2.42612285087300  -11.74591686580547   -1.37056927734478
C           2.09000259014289  -12.09299601329917   -2.63834574613170
C           2.59879043987642  -13.12075822059930   -3.45765395257699
C           2.06619626439557  -13.31843403266781   -4.70865072652882
C           2.34290068263795  -14.30277692189073   -5.69094169113620
C           1.58246409536985  -14.21082868571898   -6.82148559771333
C           0.66672821402321  -13.13648559102140   -6.81072924055751
S           0.79350397145739  -12.25931542161353   -5.30249214667667
C          -0.24398638485938  -12.65968294038185   -7.73230054810680
C          -0.65114182567830  -13.09514030700197   -9.01340163782772
C          -1.57915881090715  -12.29022913838214   -9.60289791891092
C          -1.96756616504670  -11.15502736965717   -8.83240645395964
S          -1.08209955762256  -11.18387833069992   -7.31118785984799
C          -2.91976916631038  -10.21721154000101   -9.10911506819360
C          -3.24364974795251   -9.13151568250363   -8.21936942391494
C          -2.25850583920016   -8.58517381618527   -7.38059426548760
C          -2.61798878817283   -7.75171216292602   -6.35636206871398
C          -3.95542133250926   -7.35461938744502   -6.17928440962768
C          -4.91922458193850   -7.77921541725354   -7.08939572746007
C          -4.56096926376270   -8.66025766981479   -8.09123719224686
C          -4.02913847115341   -6.54582216260881   -4.98121728398173
C          -2.74090538537941   -6.47517657785423   -4.41238229827620
C          -1.73848018797343   -7.22471963716844   -5.25271421313370
C          -0.63078325082922   -6.29789933739306   -5.78254615479463
C          -1.17950924982295   -5.12112967244292   -6.58024316948494
C          -1.10758654606402   -8.39223670322314   -4.46619814382805
C          -2.14546852050815   -9.37580889691848   -3.94027404085734
C          -2.51662747084231   -5.80419685344866   -3.24057314352675
C          -3.58308917411820   -5.15588681066924   -2.59252678249914
C          -4.85736078837712   -5.21219524800581   -3.18193711673119
C          -5.09010992337757   -5.90102489700076   -4.35559234674782
C          -3.39318397205746   -4.42676014906178   -1.36666408761399
C          -2.25257986104651   -4.42666916585950   -0.63565228213526
C          -1.98750506722220   -3.67642053499099    0.53516019639385
C          -0.80133135405167   -3.67867837466968    1.24750751308151
C          -0.92169133058609   -2.76438222645931    2.34856706710330
C          -2.26476166909296   -2.18551551519796    2.28627766391831
O          -2.82774436057438   -1.38697731117024    2.99760112837634
N          -2.82566299845722   -2.77532787159997    1.15612106332689
C           0.24448207107143   -2.82325180840615    3.03348586633641
O           1.10039400101301   -3.69532297687336    2.45907449801605
C           0.50016025526249   -4.27298065497283    1.32358237975550
O           1.07851877405054   -5.08552014970465    0.64768207513977
H          -3.11029059203842   -1.88788920610069    7.05282156765481
H          -4.66928643247560   -2.30997964203181    5.14122424801904
H           1.19835339639831   -6.48690745848014    4.49604529879513
H          -2.14035940061293   -7.29765934445915    0.90071410700408
H          -2.64203955546575   -5.73896667341290    2.74820129417876
H           2.67564132330059   -8.55258926203681    4.41391089020182
H           3.38201520034641   -9.72042971575031    3.29479934040248
H           0.46721030969094   -9.68892946444456    4.22020785870479
H           1.71835862286064  -10.79436973417353    4.79258911872682
H           1.16986662085668  -10.87091619492091    3.11602911897796
H           2.83195038540393   -6.85197725276651    1.01281173561845
H           4.02305452900982   -8.02540396925679    1.59185853443402
H           2.89483673925803   -5.63828732763565    3.12341200186672
H           4.52359290568755   -5.82972437091116    2.49617503550431
H           3.99026810063194   -6.83403956896143    3.83971350365095
H           3.28615282646073  -10.42586238695303    0.80607998627385
H          -0.03937727598931  -10.79813766017211   -1.87495038156339
H          -1.24452127974493   -9.03951908864948   -0.68862810532346
H           3.25455132974469  -12.23185945058296   -0.87186030669364
H           1.30870250321230  -11.51263293164877   -3.11243829375289
H           3.38011086361401  -13.77672925605182   -3.10142835273224
H           3.09607072391325  -15.05481797438748   -5.53062067001851
H           1.66186383367470  -14.87876360550490   -7.66162276774334
H          -0.25804096913171  -13.99293471704646   -9.45813689365560
H          -2.00367984581062  -12.47030360027189  -10.57541347582889
H          -3.52627929858118  -10.35334648079346   -9.99446431256286
H          -1.21811238930783   -8.81084128613880   -7.54755776937803
H          -5.94496630259989   -7.45355525448976   -6.99627258547221
H          -5.31702062054809   -9.03906109903421   -8.76425308584960
H           0.03883210202201   -6.88449395026319   -6.41447846450133
H          -0.04995477428564   -5.92561581698100   -4.93638122260700
H          -1.75047834490001   -5.47152288872041   -7.43747439937173
H          -0.36290784524502   -4.50007226964516   -6.94093669874309
H          -1.83096013696665   -4.50702035836092   -5.96212024417729
H          -0.53353631153530   -7.98585190087889   -3.63088922296300
H          -0.41636947018022   -8.92400148216062   -5.12252917179182
H          -2.84277133876214   -8.88194610649958   -3.26660105226872
H          -1.65476763747621  -10.18175312147397   -3.40169884179728
H          -2.70893272148449   -9.81349144257392   -4.76077395215122
H          -1.52154254930871   -5.76343652732143   -2.82717648390629
H          -5.67895180833570   -4.70950644607497   -2.69114868769633
H          -6.08280166360631   -5.93614566831771   -4.77928498644551
H          -4.24263339899950   -3.84546151456576   -1.02971183501808
H          -1.41172211627698   -5.03670634845938   -0.93240529576118
H          -3.79448630819622   -2.63950836348637    0.91408473407911
H           0.59532492704813   -2.31662418916289    3.91355300795432
