127
 SCF done       -208.329082780552          0.000666109278
C           4.73887541987137  -18.20073472346488   -4.72942729943457
C           3.44231398180976  -17.92817506356557   -4.63855132329565
N           2.41995290529422  -18.85216787805630   -4.50829701659088
C           2.74286266290398  -20.25268156277031   -4.67882433875498
C           1.11257124229904  -18.40646577753531   -4.60875847551242
N           0.90693726192080  -17.27443554408108   -5.22771853840990
C          -0.37260601648414  -16.86631253184429   -5.37215658626936
C          -0.77721779839883  -15.70278699141737   -6.01263024114634
C           0.06940358935717  -14.70194297502646   -6.55574172779815
C          -0.37242416213026  -13.54246367542117   -7.07941528037558
N           0.40679021388490  -12.56969543128117   -7.66288192114388
C           0.00974345928225  -11.19206694503526   -7.46242753754201
C           1.73313483002213  -12.79543261686872   -7.99484345139936
N           2.58081092520812  -11.85139091575586   -7.67550323041298
C           3.88661785590916  -12.08223459282453   -7.92161234688378
C           4.92598800788459  -11.20883910633334   -7.62859639777935
C           4.80558040474342   -9.88585573848150   -7.12077030908779
C           5.87746572067081   -9.10040682734658   -6.90344190080283
N           5.88546196180208   -7.79060343827984   -6.49117299980653
C           4.62238216147801   -7.08938339801907   -6.40602009643077
C           7.08712591762492   -7.10489639604792   -6.62504870688100
N           7.97188903106868   -7.65434470944043   -7.41489832911737
C           9.13026005822397   -7.00295305901765   -7.61274612815502
C          10.14829470892237   -7.46243780680608   -8.43996355810417
C          10.07522358911642   -8.71875897132437   -9.09050633378691
C          10.93840684924795   -9.23455388645570   -9.98735089692314
N          10.78438813166285  -10.47919602046555  -10.54580174603591
C           9.62303019999212  -11.27101924325835  -10.18643719999620
C          11.43692196560499  -10.85389402713881  -11.70605355634783
N          10.71350451848358  -11.57394649777822  -12.52711823569904
C          11.23750546176679  -11.91319167717382  -13.71727755384584
C          10.58170848884822  -12.62190166473819  -14.71765020013763
C           9.23251824719058  -13.08360361379098  -14.75478453851081
C           8.35579822195191  -12.76077741078547  -13.78155807837670
N           7.03706255042532  -13.13907386695353  -13.70801829251859
C           6.46357460720586  -13.84638597854446  -14.83415331142683
C           6.22811184431342  -12.52062508643956  -12.76847905937716
N           6.64778537213862  -11.39770888662377  -12.25006208622760
C           5.78142492976613  -10.71460926017432  -11.46017794467520
C           5.99608530098112   -9.49239950496488  -10.87780961201972
S           4.56576187317186   -8.89954229915211  -10.14871714643360
C           3.66353238976386  -10.29602979591766  -10.57094391496119
C           4.43476266697704  -11.19253151897239  -11.25832916579840
N           4.07895433886371  -12.44066202867505  -11.65942312246492
C           4.96195044556713  -13.11353029054769  -12.34451671529317
N           4.67808888326056  -14.41782169183253  -12.64984198482550
C           3.53126221323424  -15.02939080883836  -12.01318766637430
S          11.64567885501140  -12.79709487127077  -16.07764027343394
C          12.92412918657437  -11.92346372470404  -15.32986609171198
C          12.56859456324357  -11.50815439641184  -14.07381410796070
N          13.34187975153172  -10.83886030167242  -13.17825183334713
C          12.81611752390410  -10.52843353254261  -12.02176730389542
N          13.64548922150932   -9.85118257834650  -11.15095622159778
C          13.85279921287869  -10.31069241431837   -9.78969725034086
S          11.40964060478293   -6.27646099717617   -8.50068802586127
C          10.58731999338273   -5.20683305537775   -7.42055817820240
C           9.38516484589591   -5.72442912489264   -7.01905499693120
N           8.50536559531562   -5.21258745883897   -6.11390332190753
C           7.40730468810475   -5.88691064874026   -5.89427139302714
N           6.54970389697912   -5.41548434577305   -4.93380737630439
C           6.97124495683172   -4.31596224749966   -4.09684242080821
S           6.43841700262361  -11.94907841862306   -8.05447272563585
C           5.68864700313344  -13.40028354731297   -8.59554216667848
C           4.32768597106659  -13.33381628461835   -8.47374456893692
N           3.42654325570903  -14.26602868595382   -8.87990487373457
C           2.15717444960350  -13.99443344579899   -8.70092046332127
N           1.27940734055187  -14.91592052529416   -9.19471496444406
C           0.02356315511498  -14.60525367455524   -9.83823242300478
S          -2.51436467718486  -15.64531547044650   -6.06279096480315
C          -2.68555936406163  -17.13366504928641   -5.21583838657403
C          -1.46658607477672  -17.66902929770907   -4.90067314470615
N          -1.23395846410694  -18.78192075194251   -4.15411314959646
C           0.01185358784232  -19.12876399284989   -3.97886945201013
N           0.26997737528022  -20.19448499731625   -3.15867511550170
C          -0.80738556508755  -20.75865359205734   -2.37891938385430
H           5.44913945211320  -17.39731834552073   -4.78634174921818
H           5.14390269430513  -19.19622588550766   -4.74793636750261
H           3.08607629635107  -16.90962360875950   -4.62999118131678
H           3.35091979884886  -20.37654003102325   -5.57987929623401
H           1.83534008964350  -20.83931930942117   -4.79367588535412
H           3.31567159825690  -20.62744466805709   -3.82588858318815
H           1.12307576960429  -14.93392745760498   -6.50934837020385
H          -1.42864323193953  -13.30403421612095   -7.04717723165511
H          -1.07185489060467  -11.11438066981590   -7.56809566439764
H           0.50002822974883  -10.56947945047786   -8.20837134700531
H           0.30080026500087  -10.83189529425076   -6.47233297372894
H           3.78868916435234   -9.56163906864856   -6.96197974640756
H           6.86584563109267   -9.50004379873770   -7.07482100112501
H           4.03045219552709   -7.30419621238953   -7.29993299677135
H           4.78970286303151   -6.01702816510430   -6.35348783449698
H           4.05719725137489   -7.41749085535721   -5.52984724033304
H           9.18525458126226   -9.25786131935245   -8.80239920546123
H          11.79198774915312   -8.66794035607697  -10.32794799738376
H           9.54486444885899  -11.32612299165946   -9.10139904077512
H           9.75500817654976  -12.27191132616314  -10.58990772271970
H           8.70230577875426  -10.85379863647321  -10.59810528377646
H           8.95982039520785  -13.67025186222708  -15.61997448810122
H           8.68347927035249  -12.14623836572775  -12.95911952581364
H           6.72638047293091  -13.32516029117538  -15.75856100871443
H           5.38077353853680  -13.87787707622752  -14.75417925579952
H           6.85511824769211  -14.86520393802468  -14.89127091660083
H           6.88707907369947   -8.89877373710526  -10.86863419133759
H           2.63627766426403  -10.38204625798010  -10.28323014442486
H           5.48519297702416  -15.01709273378328  -12.73953313094513
H           2.65206185200690  -14.43987664014182  -12.26813496840717
H           3.63265671379427  -15.03524509633534  -10.92214607750432
H           3.42080444105875  -16.04288214385678  -12.39334705737989
H          13.84598129651786  -11.77256176677722  -15.85195120899455
H          14.52526119065560   -9.65629186009525  -11.61919639204702
H          12.91311081138646  -10.62819416128165   -9.34698240571850
H          14.25622899937940   -9.48609335112034   -9.20208449426229
H          14.55574143041252  -11.15054910039261   -9.74810822076059
H          11.04346377851664   -4.27665467444077   -7.15210044572255
H           5.99964361453604   -6.12026594301860   -4.46550003113629
H           7.42903100148732   -3.56412003322302   -4.73530426057428
H           7.70762555738112   -4.62131889939788   -3.34661244655610
H           6.09719687072167   -3.89964545631001   -3.59861993122864
H           6.29087147252817  -14.19995905331863   -8.97487046621785
H           1.76448721871331  -15.71370824989574   -9.58203830639363
H          -0.80394520345115  -15.09831731182997   -9.32120302913305
H           0.03878681462135  -14.94663193448050  -10.87551412758490
H          -0.15275648440053  -13.53227824688918   -9.83712594443594
H          -3.66135762302140  -17.51261114756469   -4.99426231154305
H           1.16857467098457  -20.17783251788290   -2.69993730050423
H          -1.67533481170167  -20.85839701784513   -3.02655830900470
H          -1.08437059114449  -20.12323345749221   -1.53132698989441
H          -0.50102377086286  -21.73735682145842   -2.01315928132905
