108
 SCF done       -165.179353029804          0.000366517710
C           3.15924186421555   -3.21784146630575    7.65050555429511
S           2.80814596023305   -4.40770618425500    8.83238663996418
C           3.55112943798858   -5.65723561269698    7.92403637269035
C           4.05150916202884   -5.17798837288924    6.74334347981065
C           3.83843492252715   -3.75975190837757    6.59127456445428
N           4.35265865553138   -3.09146314727534    5.52977633929787
C           4.99614210059329   -3.79227348020383    4.63169540816885
C           5.01753764045923   -5.25191535068713    4.68165739900098
N           5.49758243548950   -6.03297640991607    3.65650726665326
C           5.10107384374112   -5.84553602171244    2.27818389139787
N           4.60393918875141   -5.90180867260553    5.73596997205671
N           5.59256692983269   -3.08245939360677    3.61378007254044
C           5.18735786818071   -1.69922439892075    3.46433252045829
C           6.83634415855503   -3.42240646947791    3.09153670159599
C           7.72514883602129   -4.22286094667021    3.69774711178737
C           9.00467628593580   -4.67734774679698    3.23201755264183
N           9.45021872971094   -4.77979422184976    1.93929305422530
C           8.73732478852173   -4.44328435632019    0.73523686135405
C           9.08793526742294   -3.03575943727351    0.25161025014497
C          10.73649044665798   -5.25180428366712    1.94583150104948
C          11.11490183998971   -5.45884330396765    3.25706111551454
C          10.02663227125796   -5.11556951213381    4.06102795562954
C          11.49343942700839   -5.48994449650240    0.72820955325697
N          12.64445389318936   -4.81648986649855    0.43530762742237
C          13.29068287047278   -3.86404886455192    1.30244592626402
C          14.53918478927016   -4.45855674952549    1.95018461977902
C          13.14011748251438   -5.27694739875772   -0.75430082201393
C          12.27487228640674   -6.24505234309308   -1.23230929291975
C          11.23994212920541   -6.37558020716104   -0.30139363306493
C          14.34088515825721   -4.75776949524985   -1.38087931268695
C          15.28559506673944   -5.54507711133383   -1.95884250084274
O          16.37868177150172   -5.02656889164400   -2.64435708501588
C          16.46496062462625   -3.66997624181353   -2.64662819354382
C          15.49229769210101   -2.84425168380887   -2.00885428913669
C          15.76769115611145   -1.52186731790808   -2.11859525120151
S          17.22248996125137   -1.25702180740473   -3.00804952398018
C          17.45753485506706   -2.95316768751754   -3.22766019844687
O          14.40799600855617   -3.36624878908354   -1.37199866504915
C          15.26904334669070   -6.97572233932258   -1.86870418334402
C          16.14983326233369   -7.77940164808134   -2.49762736722351
C          16.17750139383790   -9.21948666987847   -2.42944974209423
C          15.19670814523446   -9.95905364074389   -1.81098660541064
C          15.26803970122193  -11.36708743707524   -1.78584771871994
C          14.40784178258589  -12.31411049304804   -1.24503832354143
C          13.05392024139245  -11.94913470735219   -0.70590027803957
C          12.17306586593968  -11.36542077718029   -1.83796478623407
N          12.14816174126296  -12.23302304285891   -3.00107202980270
C          12.29191319401973  -13.03866738264242    0.06082338103854
N          11.69362743497049  -14.03714581596895   -0.81322687203979
C          15.06442859521650  -13.59442209020450   -1.39640793884748
C          14.83013587793623  -14.82286134156490   -0.89392888679260
C          15.72099336927360  -15.99137283457289   -1.16380003697353
C          16.89362187256460  -15.69700288752194   -2.03577023593735
C          17.16171564910636  -14.45784177243216   -2.48127837328284
C          16.31068807903250  -13.37461939880404   -2.15882059881486
C          16.43020970630712  -12.02018280611309   -2.36825614780211
C          17.42486017671987  -11.23945012261013   -3.00586031262233
C          17.28646720427223   -9.89293934422168   -3.04802525180117
C          16.11290237821915  -16.57827834190570    0.17827035754647
C          17.30500422141559  -16.45512217544645    0.72779689203375
H           2.87250849271780   -2.19844152102913    7.80675756075475
H           3.56527523125180   -6.66093711265631    8.29565122384803
H           5.47313474861904   -7.00751957865385    3.93786289759778
H           5.01048748086226   -4.78753841419990    2.05064607507666
H           4.13916541132442   -6.32543820063180    2.06340278642804
H           5.86141092753478   -6.28695549652429    1.63271765393424
H           4.11103237245279   -1.62920018233006    3.60707854959176
H           5.45386590864873   -1.35678981849232    2.46472394501325
H           5.67132853604231   -1.05897996093238    4.20614968961800
H           7.03692549188566   -2.92815549425100    2.15254560347497
H           7.49631565365287   -4.56699210796194    4.69798545524449
H           7.66727993396229   -4.53588004080410    0.92929653045770
H           9.01162114168205   -5.16172603654725   -0.04109270877274
H           8.92819159697853   -2.30448735933930    1.04100123034517
H           8.47617812810648   -2.77058860449043   -0.60674247521979
H          10.13371631616575   -2.99540608863697   -0.04359482005786
H          12.06088740877499   -5.84097200531534    3.58714240961586
H           9.98175026426869   -5.16287190098542    5.13120990783156
H          12.57117016372792   -3.57905695015802    2.07439455898650
H          13.55960229082460   -2.97687904222187    0.72346804372891
H          14.99049609283911   -3.73252945019540    2.62086847647178
H          15.26912859108262   -4.73485759512732    1.19267948681019
H          14.28305957002896   -5.34962513100123    2.51806920623641
H          12.37144944991518   -6.76981315950651   -2.16201418546773
H          10.41503988609120   -7.05920011386425   -0.35929730952307
H          15.20563707249533   -0.69554074494180   -1.73684583378459
H          18.30480696013413   -3.31778197155584   -3.76908334713255
H          14.50102257955969   -7.37937671280688   -1.22984363117072
H          16.90967593994382   -7.31852836157014   -3.11483286277631
H          14.36988541272030   -9.46337205381211   -1.32676145914080
H          13.20634864134655  -11.13261250554035    0.01452211763423
H          12.59349508234012  -10.41000025722726   -2.15872361176973
H          11.17104700649689  -11.17211122935112   -1.41593300791340
H          11.66472241854818  -13.09149757585746   -2.75839206432200
H          11.63469065735603  -11.78413546393653   -3.75206529033088
H          11.46353907664443  -12.55811865270697    0.59355773955687
H          12.96504940193915  -13.46271724790019    0.82607017164122
H          12.41172074782546  -14.50254193957072   -1.35771061616574
H          11.20412745556825  -14.73464497838762   -0.26236109640326
H          14.02012005719556  -15.03695935609437   -0.21261927207349
H          15.10519953753590  -16.75549697420350   -1.66763209404103
H          17.52834766303793  -16.53649718732814   -2.27671572087127
H          18.03303741877878  -14.26730533729010   -3.09173812358167
H          18.27987676244769  -11.72657329214991   -3.45236781313707
H          18.03367378320223   -9.28369634638693   -3.53707323083652
H          15.31771875863851  -17.09646732643406    0.69928733527784
H          18.10678444925139  -15.93217336011665    0.23461545676844
H          17.52533097957454  -16.87515304093279    1.69467097610451
