103
 SCF done       -164.005932947473          0.000774280904
C          10.17667718371553   -2.87134599797061  -13.92230905930384
S          10.23622920495712   -3.77258106199135  -15.37689202251817
C           8.52826597038748   -3.81424463337260  -15.52585638839643
C           7.92581785543752   -3.15569564505661  -14.48862146554421
C           8.88259281540241   -2.59864175586132  -13.56420495903534
N           8.47618049262264   -1.85043828001335  -12.50870215369130
C           7.19202494014524   -1.67911721391077  -12.35551761261641
C           6.22494565416710   -2.37413042478024  -13.20141362356080
N           4.88984064410266   -2.33157390748815  -12.89907858416578
C           3.97841503700651   -3.18261917781095  -13.62924555576883
N           6.59225516030873   -3.06329636028277  -14.24627462643775
N           6.77824180353002   -0.86986273385562  -11.30934680770561
C           5.68581493386360    0.06388341018091  -11.48204787017773
C           7.63529171688447   -0.68038502710050  -10.24985963728714
C           7.43795671599968    0.16522014738823   -9.22269579517965
C           8.33461652758675    0.27264170686496   -8.11465086342942
S           9.79537696794514   -0.67001088808650   -8.00663391156821
C          10.19241136797692    0.03750992115759   -6.48865817049798
C           9.27256753119508    0.94486492266226   -6.08320697533850
C           8.19946007114274    1.08693159149626   -7.00162875641488
N           7.15815850136444    1.98965825414727   -6.84881671197184
C           6.50897257759073    2.31276016175915   -5.69557278985615
C           6.66771057173393    1.73288836594329   -4.48470502693606
C           5.92660460310849    2.13234144198836   -3.34088254807221
S           6.20520739831549    1.37061609678598   -1.80745439472005
C           4.99703510166045    2.29567816611207   -1.00442380466307
C           4.38952171535765    3.16506268321193   -1.86802958938704
C           4.92356708265640    3.09023014661579   -3.20324729607810
N           4.46608814338528    3.90751046390226   -4.17419833685941
C           3.50622263264617    4.73467870899049   -3.86760297138976
C           2.89319008918446    4.73444223006634   -2.55109847864770
N           1.81908317672854    5.54574291804296   -2.30014492636927
C           1.09979858100555    5.40682320483510   -1.05578485459946
N           3.34397183657451    3.98572268643068   -1.58069309471453
N           3.04015796524081    5.61514734797580   -4.85247276979504
C           3.04212161959669    7.03498554071560   -4.54201651638027
C           3.06177924641219    5.29985311474096   -6.19441113581287
C           3.22465967683697    4.08600529245827   -6.75021953469853
C           3.14971973964813    3.84459063116085   -8.16384098250950
S           4.16025851399659    2.61645831645965   -8.88352885915236
C           3.55630962785591    2.96770339241775  -10.45733547394152
C           2.62677933071399    3.95111820616168  -10.43957231169367
C           2.37896254097160    4.45769615437747   -9.13494357012487
N           1.41725071144016    5.39936007116872   -8.83125908688357
C           0.67522848488471    6.11814115492401   -9.72021611638874
C          -0.38483028636648    6.87261495846568   -9.37423187924001
C          -1.14851927985069    7.64255102710939  -10.30234459566996
S          -0.70473693232075    7.73403031139705  -11.98949685421347
C          -2.04381458785389    8.79934175802948  -12.35897099033698
C          -2.79534360879397    9.01594916755041  -11.23471041481570
C          -2.28687520183108    8.37758701910633  -10.07868469443787
C          -2.99622650547862    8.64566924729076   -8.79209160644491
C          -3.26711721593295   10.15124100061086   -8.71270487656171
C          -4.09328721899112   10.69233620091654   -9.89388558624209
O          -3.52633051422287   11.94700243520293  -10.23441257000971
C          -4.39099672541473   12.83060340543694  -10.89543182077730
C          -4.10439838354070    9.71833771177218  -11.09293641927439
C          -2.16264846730612    9.28255077112743  -13.71249039050750
C          -2.63678313040413   10.47123994570132  -14.07301115853312
H          11.07892402972752   -2.57546427892206  -13.42826356552019
H           8.07002846455032   -4.31680949003889  -16.35236709014774
H           4.67159177491738   -2.21246954559929  -11.92098915905005
H           4.23484065833606   -3.12358710732818  -14.68433865090197
H           2.96252891458082   -2.82408704531934  -13.47199688165994
H           4.04774586759722   -4.22967780509519  -13.31853842099013
H           6.07262546813470    1.08418059254155  -11.40070648322026
H           4.92376332779884   -0.07698318549519  -10.71030552445993
H           5.23826800193123   -0.05883022853688  -12.46487677976950
H           8.51022991408659   -1.31152880268456  -10.28274606060331
H           6.55915323776838    0.79229453982165   -9.17511245148805
H          11.09641594427088   -0.25665672546566   -5.99472481696201
H           9.36069015456346    1.52352519613892   -5.18256659815992
H           6.72789624840081    2.31353935904216   -7.70236367631267
H           5.79635504789275    3.11716350993325   -5.79886621304459
H           7.34873126175918    0.90675545926839   -4.34577607174875
H           4.80164522179027    2.13916803712658    0.03569631159664
H           1.25442157420417    5.77492486322637   -3.10469187900909
H           1.83044971953680    5.27877160939697   -0.26077509282636
H           0.43437673821481    4.53756960532469   -1.05350783680973
H           0.51583396451962    6.30966866875584   -0.88314234733563
H           2.13044079446752    7.50772429692951   -4.91568658991341
H           3.90313022900387    7.52865275618082   -5.00362270997869
H           3.10291397424474    7.17974649040218   -3.46671959807335
H           2.89848665912401    6.16423538785038   -6.82539516446308
H           3.48053971698153    3.23910401323668   -6.13244408100822
H           3.92031679794947    2.41761878378030  -11.30097183256991
H           2.12025686831046    4.29339669622463  -11.32296073871273
H           1.14591070314920    5.44676790713245   -7.85828543716840
H           0.99892000888645    6.07836876258208  -10.74877358205410
H          -0.70814915799866    6.90446028989459   -8.34207217279041
H          -3.94267250464420    8.09600179033731   -8.76241079938066
H          -2.39973060890690    8.33563391196612   -7.93394568624370
H          -2.31229022310563   10.68010080935339   -8.73560357460676
H          -3.76445764239982   10.39498949375878   -7.77310943087161
H          -5.13850768843042   10.85394553027809   -9.58090109116248
H          -4.72178612405333   12.44725640418613  -11.86817630157665
H          -3.82911543559197   13.75001360538793  -11.04916021015937
H          -5.28000201435365   13.04463571388792  -10.28746386675592
H          -4.38138792446054   10.24417182193835  -12.00368967840984
H          -4.87289383591396    8.96173121383894  -10.90058691680138
H          -1.77727982186623    8.60915032244332  -14.46916803636973
H          -2.96315877398105   11.20102676008504  -13.35324294843418
H          -2.68927353432362   10.76026170966018  -15.10846038618714
