75
 SCF done       -161.387267565484          0.000652277962
C           9.39216435930959   -7.60432159816081   -8.91894441637229
S           8.43474461945303   -7.86594805297657  -10.31231149606248
C           7.35794748181959   -6.59156246378949   -9.92574283082744
C           7.71855693171672   -5.97831427045604   -8.75634010746598
C           8.89450567342618   -6.57318852696240   -8.16557833295434
N           9.36896201440756   -6.12706674522601   -6.97970068298524
C           8.72892898941091   -5.15792821290624   -6.38710734800805
C           7.61663671773136   -4.47439548656824   -7.04944905028946
N           7.06574068609349   -3.33768370646100   -6.51143725601896
C           6.26452859322295   -2.49274171257280   -7.37694721460108
N           7.14332045330945   -4.89345682210207   -8.18728790746296
N           9.21008693611560   -4.72934938354035   -5.16605339245956
C          10.60675979386524   -4.96643707397465   -4.86041779288421
C           8.36787133562441   -4.27002297814177   -4.17904537632262
C           8.79226720046139   -3.63997923868858   -3.07114305061178
C           8.02933290663827   -3.20148616778387   -1.92340691859065
C           8.70128928396142   -3.00688698870223   -0.74712424144223
F          10.01099709355126   -3.20461083182474   -0.56656921838245
S           7.74616774271219   -2.48863335359442    0.59124628633281
C           6.38017720892553   -2.50729029261982   -0.46545128323206
F           5.20635241155606   -2.14960200480841    0.06352715965918
C           6.62426331075058   -2.88382121994783   -1.76261888145934
C           5.63489240506958   -2.91153525669715   -2.80935516351518
C           4.34695275362515   -2.52391454655261   -2.67424473589880
C           3.35412101961609   -2.58688206333423   -3.68581757896436
S           1.80974005016936   -1.82066012719531   -3.39053193588960
C           1.12114009699167   -2.30505027201907   -4.91137367346612
C           2.05977968186433   -3.03772156095848   -5.62458940006284
C           3.30133621295541   -3.19455384955166   -4.93033056542484
N           4.07600016532761   -3.97512949016147   -5.72342430029207
N           3.43148825238736   -4.31068186121958   -6.85470305881255
C           2.24073996068718   -3.78013981417953   -6.82504684400157
C          -0.19643977354968   -1.89606681032706   -5.30907441409537
C          -0.56850292465055   -1.70192187963316   -6.61180310302523
F           0.20304916992674   -1.84374587809755   -7.68802045918772
S          -2.19717328852557   -1.16223103304180   -6.83513781363148
C          -2.38698625303753   -1.17247712686707   -5.11940578654109
F          -3.57378557534670   -0.85638268239248   -4.61300443309378
C          -1.28764224053330   -1.58063551360944   -4.41531714269041
C          -1.24255675059622   -1.75612145634131   -2.98555737565741
C          -2.01867051795020   -1.09589238472148   -2.11228362445027
C          -1.97717341163895   -1.28415953726435   -0.68161568698871
C          -2.18233637818838   -0.19891422206099    0.19880332082878
C          -2.39464280419287    1.19155218058073   -0.24172653092954
O          -2.40641139986612    1.63165396563322   -1.35328538896251
S          -2.63261315449360    2.24176139724706    1.20326913726871
C          -2.40416373277380    0.89053976344720    2.35647823935400
O          -2.44537448212920    1.01272564432605    3.54307016804421
C          -2.16830656076275   -0.34888102577259    1.58859813130104
C          -1.95525853879075   -1.57566932926062    2.20156112372237
C          -1.76674439073581   -2.64668529477754    1.34716379646027
C          -1.77211846748576   -2.52180539509058   -0.04581779384523
C          -1.62690986220279   -3.89522004303720   -0.58980016651757
O          -1.61405703278024   -4.29668087154332   -1.71323895865566
O          -1.51125103298366   -4.75237286849848    0.48085539450858
C          -1.57735256565450   -4.07859768136689    1.67590922949646
O          -1.49545204936491   -4.61713496694085    2.73432735809565
H          10.24113511958350   -8.22399952388443   -8.71610817577076
H           6.52903558930396   -6.36542155971715  -10.56372935482027
H           7.66851017954237   -2.83076233390662   -5.87586459846265
H           5.54886860479644   -3.12086145849979   -7.90318532280860
H           6.87578519292268   -1.97110647370333   -8.11873977422941
H           5.74117088142868   -1.76231694609151   -6.76283191755507
H          11.16356362006233   -4.02643080811270   -4.85749642112556
H          11.00951469088305   -5.62451377583921   -5.62606908586817
H          10.70262658300883   -5.44423881776450   -3.88556940613818
H           7.32961329461497   -4.51690229715436   -4.33411179667113
H           9.85353728085189   -3.47578426612420   -2.95040238771826
H           5.97375279816840   -3.24458140687237   -3.77511599545200
H           3.99275352615233   -2.11869293666238   -1.73950574031613
H           5.02955467707580   -4.27003529902864   -5.60056882084478
H           1.55763237140515   -3.93293827705679   -7.63379148679638
H          -0.50952253051033   -2.46479266726011   -2.63275866798786
H          -2.67714020340443   -0.31272341185476   -2.45762127652371
H          -1.94954000055650   -1.68126871734062    3.27425361699215
