100
 SCF done       -183.790502718283          0.000963448956
C           7.30801831440619   -5.66377436882768    5.21743830213734
S           7.77498149474381   -6.82166926346917    6.38777505984385
C           7.06594076607682   -8.11887002656396    5.52334866683180
C           6.47799914509282   -7.67790042478065    4.36757894879795
C           6.63309864960685   -6.25550362085624    4.18103717285448
N           6.21392034822466   -5.66015722273313    3.03900410691222
C           5.60714119409064   -6.40775917830489    2.15443335778830
C           5.25927355188562   -7.79109536861352    2.44816460076538
N           4.44647842176874   -8.54255257348181    1.62509174356364
C           3.14796007572874   -8.04592320505595    1.20388109007095
N           5.73572590579937   -8.40526423805225    3.49644561258957
N           5.31964255092884   -5.81506668736931    0.93319035967449
C           5.47775202026146   -6.55780169878819   -0.29978368842513
C           5.33060160564678   -4.44204992739332    0.87034186867351
C           5.37962735715822   -3.71283545532980   -0.25548749002587
N           5.35976017598161   -2.33150356159478   -0.22305788272404
C           5.55694933945106   -1.52700042670774   -1.27964328192161
S           5.78986475529504   -2.17554044373511   -2.87229429120256
C           6.03281358463307   -0.56152982357528   -3.48240567678171
N           6.27568984787451   -0.42994952737074   -4.84168839722686
O           6.45644841179542    0.69264383969866   -5.28888172156803
O           6.29396315111488   -1.46353979788316   -5.50001155746539
C           5.94303827485937    0.40191467937717   -2.51260679594092
C           5.66109979331813   -0.11967190806458   -1.23791814166144
C           5.48649936338915    0.64839863151185   -0.04448378782135
C           5.94553904317065    1.91627412931192    0.12396309849946
C           5.76791012587860    2.72518666459843    1.26726813024890
C           4.88038791480325    2.58230232074683    2.30283224661109
C           4.78534141882067    3.46350005941943    3.41176293827278
C           3.76217070191943    3.19577611889623    4.26625985587872
C           2.96931542770315    2.08936710478517    3.88436224017551
S           3.61264341332766    1.36629559189789    2.42608382897453
C           1.81974896034317    1.63120388409733    4.49588886450257
C           1.22429301306415    2.12849460936749    5.67692380168570
C           0.04400727562428    1.53438024006970    6.00303199619283
C          -0.37457169876633    0.53186416583371    5.09334273533316
S           0.83432625442208    0.34599631152022    3.82810134565467
C          -1.52214247408840   -0.21921094275301    5.04457490150913
C          -2.62750326168366   -0.19098359676187    5.91236082469465
C          -3.80762939266900   -0.91823140698908    5.70952629833346
C          -4.00405236032986   -1.67961586224091    4.55088774892112
N          -4.13534473707566   -2.25411172640222    3.56534279521416
C          -4.77418314963498   -0.69928410497078    6.72398387516598
C          -4.31767131912528    0.20870339389562    7.67254013715862
S          -2.71958414328517    0.77809420007762    7.37530941063802
S          -5.45860049972253    0.62383020746619    8.90920866097207
C          -6.58945405400430   -0.44817295951136    8.14246756811623
C          -6.10848024413495   -1.10538610283309    7.01939002884305
C          -7.07950375639960   -1.99832862184489    6.48355764184665
C          -6.79952329369170   -2.98330111137109    5.52814179058700
N          -6.51191418380779   -3.84929967898497    4.83090491658424
C          -8.28344690572233   -1.94077619708595    7.17018649981313
S          -8.22044389247437   -0.84340546559260    8.53535291689110
C          -9.48118882720289   -2.61770275988263    6.83432634791499
S         -10.71584452908630   -2.97395992520786    8.00613443755031
C         -11.73438788164067   -3.70020244680599    6.83697986444641
C         -11.17427948105725   -3.66835513678277    5.58645177341657
C          -9.88975759120418   -3.02742933383652    5.56962047552703
N          -9.26209530290942   -2.75481220137451    4.40791083867280
C          -9.82875149484138   -3.17237219665685    3.30367498396557
C         -11.00648615120907   -4.04120808646986    3.35368498729546
N         -11.42421076037387   -4.68835473625362    2.22889474234744
C         -12.45492557962799   -5.69549451433859    2.32276636366842
N         -11.67718576422272   -4.22964267824087    4.45754589098555
N          -9.25509370969680   -2.81234238409819    2.11010863837901
C         -10.06680051472997   -2.45654799173907    0.96572236731116
C          -7.90770614725415   -2.47559405951599    2.08564082873401
C          -7.26364145578284   -1.89897318775573    1.07901386695334
H           7.56860368896781   -4.63278648481989    5.33956687981065
H           7.10466284872851   -9.11526225816238    5.91204903668427
H           4.39392926053353   -9.49070043950393    1.98455876099867
H           2.38232281894407   -8.22301729002863    1.96597203952040
H           2.85462314328570   -8.55998190219238    0.28864141400070
H           3.19612616999283   -6.97743517501580    1.01367979094447
H           4.64504159449970   -6.35067325327419   -0.97340135324572
H           5.51197503929358   -7.62227640732874   -0.08966749470232
H           6.40927276820329   -6.26564818340165   -0.79287656543216
H           5.28775879738773   -3.96381860903491    1.83769666451657
H           5.44884652592489   -4.13406791645667   -1.24426900569830
H           5.27101589888735   -1.89440628085230    0.68575059412358
H           6.05380997903437    1.44649946758851   -2.73778495189938
H           4.97883868661798    0.16329964696649    0.77717612717327
H           6.54741412240071    2.35150668632512   -0.66205398397168
H           6.39528711041631    3.60620010670765    1.32482304263456
H           5.47711768985354    4.27868796421295    3.53187545693350
H           3.54005047227789    3.77694222446814    5.14281398006602
H           1.67829819266684    2.91379170361653    6.25419125022271
H          -0.53432982799778    1.80302905559520    6.86732878234998
H          -1.62298861975823   -0.90953737759627    4.21584999878522
H         -12.67605573861987   -4.11704336658818    7.13016743159811
H         -10.71653752420733   -4.85222913601806    1.52878875849409
H         -12.88246954901130   -5.85427831996284    1.33437904783750
H         -13.21962265018485   -5.33252145474124    3.00514731436445
H         -12.07110510897196   -6.64419159063441    2.70942193462518
H         -11.11998232201085   -2.61930223783311    1.17740217323512
H          -9.77231192703304   -3.03651061597567    0.08743932151945
H          -9.92274675995387   -1.39640517267766    0.73916579314451
H          -7.38062619356393   -2.78070310828030    2.97530618081696
H          -7.73045643713238   -1.56663968021268    0.16848212501889
H          -6.20485922895302   -1.74018861463089    1.16225778940650
