118
 SCF done       -185.422079919719          0.000289186801
C           1.49159434541763   -2.84257696211973   -2.01029687802934
S           0.33570713990496   -1.86234202059874   -2.80818057370504
C           1.06401437894669   -0.40755235055105   -2.26065427720894
C           2.16252767555942   -0.66471230034193   -1.48669262992369
C           2.41652198704647   -2.07730511836352   -1.35110695824743
N           3.50388389243502   -2.52726876762791   -0.67351326098041
C           4.28731287605225   -1.63180090527714   -0.14001015132457
C           3.94558224970777   -0.20569163727224   -0.14902230081452
N           4.58877063221346    0.65521211441609    0.67718639425333
C           4.36834858454897    2.07677167712848    0.60343737027004
N           2.93308308925071    0.24830413563393   -0.84045725125008
N           5.39614361275733   -2.10869729699379    0.53463962042069
C           5.35823216057333   -3.49856627742509    0.94167860695537
C           6.63543874688519   -1.50935584913745    0.47357528451392
C           7.02172874325465   -0.57292377719464   -0.41696461733524
C           8.28264516648562    0.08381051759787   -0.39189732895462
S           9.50958255468376   -0.22814526662413    0.79685772877080
C          10.58600230627005    0.94312684244845    0.07197599673265
C          10.01540285917526    1.52453687314804   -1.04928099687411
C           8.70908669874043    1.04804856808636   -1.29277156520746
O           7.85423498842744    1.44487346892675   -2.28296249382382
C           7.95414376569739    2.80044330238435   -2.67096275389754
C           9.02599551508843    3.05033001989387   -3.73418235802892
C          10.33675203210066    2.33445078301705   -3.40598257383437
C          10.74957014128323    2.48804599769155   -1.94037166376964
C          11.86451596348366    1.19931652116452    0.62961610709151
C          12.34430936033036    0.59741258884885    1.74419738182542
C          13.60615435467782    0.84863161628736    2.34075368779253
S          14.06331172337980   -0.03316842925547    3.76634145948849
C          15.57984730203435    0.81736253662084    3.89137998104598
C          15.74412432619313    1.70363721621252    2.83677482484565
C          14.61890392304313    1.73582145715849    1.98344414618777
O          14.45087570736434    2.54918722438801    0.89964494775518
C          15.09803795218938    3.80543524046642    0.95703237817180
C          16.54334619684044    3.75660518492536    0.45976023243241
C          17.29474957262105    2.56452672537018    1.05157413474930
C          17.04687790501510    2.39995498411419    2.55276865366361
C          16.41133873266233    0.51295205174888    5.00366636544555
C          17.39361739089984    1.28986156355479    5.51848211259022
C          18.17301887441054    0.95004097066965    6.65222497419129
S          18.00735826377306   -0.53187844759202    7.54046109831643
C          19.23074520324935   -0.04816708707887    8.68999919424935
C          19.77869221416867    1.18274943695447    8.35886810050780
C          19.16213104210913    1.74611088094527    7.22159975840469
O          19.42634938470470    2.96061425068211    6.65814834432358
C          19.86617500335630    3.96909883478999    7.54695806977739
C          21.37646412234898    3.94298520016332    7.78956850574789
C          21.88245925973484    2.52419481475556    8.04920171255381
C          20.99952662120275    1.74832868282963    9.02946997843867
C          19.50515372488477   -0.94804288826709    9.75369797440460
C          20.10506020774848   -0.65891592552073   10.93488164023569
C          20.35725741187676   -1.63053454571485   11.93590526559121
S          21.02462538184409   -1.14917958835916   13.46995706140882
C          21.01646197350285   -2.74677149865425   14.08963587734235
C          20.52381627754187   -3.63597859279163   13.16939698235461
C          20.13773738844980   -3.00617700878461   11.93877552888240
N          19.58953808537628   -3.72852816650858   10.93814500126602
C          19.41507919433737   -5.01044280761948   11.13249963812566
C          19.93332803319909   -5.66708396592220   12.32957460010464
N          19.92125140280305   -7.02627776612198   12.43654283886295
C          20.63136556422008   -7.66932378854310   13.51585960129836
N          20.45518664565431   -4.98428059041367   13.31361302823994
N          18.80673521006602   -5.71972872854263   10.11775082398442
C          18.81550973547361   -5.15252651938227    8.78545486435631
C          17.92572483632427   -6.75229238909918   10.38215084974183
C          17.27404383009704   -7.46912323259097    9.47111941547737
H           1.44161703685807   -3.90926750520454   -2.08528035759409
H           0.64636062923192    0.53946835915341   -2.53316836503764
H           5.46045396895356    0.35345981934009    1.08368697315010
H           4.43939988063927    2.50614935148699    1.60262402608779
H           3.37280714707120    2.23938807487553    0.19754432337171
H           5.10201199861473    2.56263858085427   -0.04775537051193
H           5.59575139957631   -4.16261955462071    0.10717104670144
H           4.35563033484006   -3.73655374448647    1.29094183163789
H           6.07945543715072   -3.65426753852435    1.74275588305611
H           7.33959806126538   -1.86757366140040    1.21440591310545
H           6.36402329032751   -0.25634329652806   -1.21476076282145
H           8.14443286123653    3.42097603124154   -1.78605287754130
H           6.96782088791180    3.06104358801022   -3.06694769459955
H           9.18937025094852    4.12803311598624   -3.79926668715253
H           8.66651572825554    2.70248163953932   -4.70389995742884
H          11.12306290495074    2.73286182019269   -4.05046886644746
H          10.23450116930142    1.27043303975704   -3.62980592637246
H          10.58619142577206    3.52017056945699   -1.61238127728994
H          11.81852787394140    2.28693978025932   -1.85304961114567
H          12.47604654165951    1.93280362740566    0.12929632119684
H          11.72865028471547   -0.13732138005542    2.24866435367774
H          15.05892611758318    4.19051814261801    1.98280352235786
H          14.50314290375678    4.46728158086656    0.31978372900714
H          17.03105060516913    4.69156094225672    0.74225246972371
H          16.55544400248697    3.68221197764365   -0.62887250949095
H          18.36343252940344    2.69685286220068    0.87207084544301
H          16.98519339537265    1.64952267037892    0.54187003010985
H          17.09128127044317    3.37783896679162    3.04289648651009
H          17.84500732784164    1.78597605372541    2.97581044815648
H          16.18030395789541   -0.41558437990845    5.51209900002741
H          17.61879718918343    2.26157040913328    5.10730004518328
H          19.32599738885892    3.87868248908114    8.49707535130185
H          19.57822382848824    4.91441425507807    7.07712287014362
H          21.59148714820734    4.58455346332828    8.64631863849547
H          21.89532607623357    4.35156060698213    6.92083912993819
H          22.89872258740631    2.58130297804015    8.44409814702031
H          21.92545442511778    1.97492721081154    7.10612458457536
H          20.72731816376679    2.39289745692957    9.87142325582711
H          21.57298929747121    0.90926112728474    9.42958768996200
H          19.14722661514053   -1.95840172096838    9.61523288604304
H          20.39152215852562    0.35117235233794   11.18683326546551
H          21.36812238056572   -2.94373693985708   15.08128119823648
H          19.86423345426309   -7.54536608492760   11.57323555602165
H          20.46394160273876   -7.09063280944298   14.42116349115613
H          21.70944298277008   -7.71530565989702   13.33177816848760
H          20.24303884570641   -8.67861562435850   13.64089546664043
H          19.15626626310328   -5.90491225468131    8.07224362341657
H          19.49689549807194   -4.30670707329504    8.77446848493649
H          17.81916586739024   -4.81147916664697    8.49781863806254
H          17.75541761054796   -6.93333399203937   11.43397366822394
H          17.38108368935671   -7.32597904038831    8.41227764662253
H          16.59256425796702   -8.23773330219218    9.78445374423020
