101
 SCF done       -169.050547905771          0.000693044696
C           7.49302333159021    7.84086791366363   -4.14628826501288
S           8.39939714888753    9.26826770438216   -3.88142584647021
C           9.53412530944452    8.46607508934120   -2.87502068314180
C           9.22786438894772    7.13866553738832   -2.74333514416995
C           8.04933512495822    6.77498311596850   -3.48973391007567
N           7.62384353063850    5.48632676153425   -3.53252921261626
C           8.31035946051924    4.60897160856573   -2.85789770931761
C           9.41943898994030    5.00171579842266   -1.98438074292495
N           9.91145623722555    4.12847751506230   -1.07357237813017
C          11.07430625075885    4.42932616196981   -0.27842028711357
N           9.87472368965271    6.22763951276581   -1.97209138977637
N           7.86219986513736    3.29844829608522   -2.91593507102594
C           6.47788635990540    3.10844906438118   -3.30130220248566
C           8.69782403248093    2.21066755792539   -3.04872781956980
C          10.00954156186753    2.25012265172815   -3.36067318927562
C          10.88593958760470    1.12216813056837   -3.41972241193379
C          10.65295027220153   -0.22807140835318   -3.68366880368459
C           9.46310583489554   -0.82525745226752   -4.15145585973931
C           9.45463286242775   -2.15615584705956   -4.45987626004098
C          10.59500604619975   -2.95261766889112   -4.27946714213882
C          11.78294255944306   -2.44122134375944   -3.79951492046025
C          11.84465761670416   -1.02939170994997   -3.55676312974977
C          12.95029384810876   -0.26544825375688   -3.26802252910977
S          12.57114128942268    1.39248330098414   -3.11171949538087
C          12.88765417232537   -3.33595521298800   -3.57216833301776
C          13.85193318048140   -3.18597359372056   -2.63680897515835
C          14.92317430104655   -4.08901886191061   -2.39830622300600
S          15.63431795249344   -4.13011926337428   -0.81493187945411
C          16.71162251800787   -5.42717719025840   -1.21774891502193
C          16.52412686599764   -5.82192948628947   -2.54480502184604
C          15.53559530526400   -5.03869805881941   -3.22373398519117
C          15.32384197512267   -5.25633021894177   -4.59979704274847
C          15.97510469884243   -6.27514917851004   -5.23608375227237
S          15.74990287633485   -6.57614058894510   -6.97552520910071
C          16.85518183410964   -7.14522474023686   -4.53049054980298
O          17.44855856819711   -8.20153140144023   -5.13886582949926
C          17.13001645247522   -6.90591936841767   -3.21127560088689
C          17.59269108012099   -5.95810257685094   -0.23315710870244
C          18.91627489987329   -6.38275103514068   -0.36097181770113
C          19.73308616355909   -6.30539931779395   -1.50823707730060
C          20.99009014204074   -6.83777901119190   -1.46411343044459
C          21.49602548998949   -7.41196464017735   -0.28777432670130
C          20.79406282654912   -7.40588724478136    0.89994877014708
C          19.45344195131058   -6.89878319481955    0.87146013940306
C          18.52698949458825   -6.85519452127485    1.88834107365515
S          17.04208110153099   -6.17372165736263    1.39738713522731
C          21.44363301800040   -7.89024420251547    2.09234911210026
C          21.22283496634734   -7.47535672199971    3.35568054908031
C          21.90206895615137   -7.96177111638048    4.50165265359765
S          23.10359628022345   -9.21897525646203    4.47154838620606
C          23.33041877184062   -9.17653890248985    6.17052825106591
C          22.52524942626627   -8.23722416516759    6.76119023327664
C          21.69396385585193   -7.55166705706341    5.81383359517092
N          20.75813852060289   -6.67102554789771    6.22095794446231
C          20.66772168932643   -6.42222778462112    7.50640902253721
C          21.66846424694314   -6.94324310672885    8.43051213438895
N          21.76798612215662   -6.53353273276388    9.74566301173207
C          21.84668196262453   -5.12606577921907   10.08974054151802
N          22.52498598563476   -7.85798738063460    8.06434967618569
N          19.59953404769705   -5.65375617796922    7.90730551868523
C          18.88109941947507   -4.90679853138226    6.89698913685838
C          19.00507534054298   -5.81510851092500    9.14540195326767
C          17.90731464685856   -5.19308814551482    9.56341527603002
H           6.62658363369198    7.85608004811304   -4.77474685892349
H          10.34794408499155    9.00894943861342   -2.44116548654247
H           9.65642408789464    3.15791478342183   -1.16001523241946
H          11.18888926511201    5.51012453772779   -0.25395295836683
H          11.97645912318524    3.98212154142244   -0.70697097720545
H          10.93378580176293    4.04684205358946    0.73251943571504
H           6.13554267350329    2.13929682193675   -2.94014394592998
H           6.35716428680195    3.15380401429725   -4.38625725347106
H           5.87783281128560    3.90068080164953   -2.85926084690518
H           8.20055753844199    1.26702920611687   -2.87603842543713
H          10.48715342323819    3.20909344802405   -3.51522061744633
H           8.58503151838289   -0.22185652972565   -4.31372064083116
H           8.55533874575136   -2.61400752126107   -4.84487533084041
H          10.53170792061896   -4.00828052282884   -4.50252745212058
H          13.97330205436038   -0.56885932442275   -3.18387572365466
H          12.85321953104235   -4.25624870481799   -4.13957453025357
H          13.77793454941298   -2.36618609982340   -1.93436161360122
H          14.66947357270396   -4.59804976935032   -5.14928775902801
H          14.91105319788969   -5.56658823948838   -7.17769119331058
H          17.17818353393545   -8.25398828974548   -6.06455194676089
H          17.80600617458369   -7.56494347186034   -2.69309514035250
H          19.35919685319316   -5.82824693769275   -2.39993655528255
H          21.61909898460896   -6.80641302362469   -2.34123870668171
H          22.49718667146819   -7.81821173494807   -0.29842187375370
H          18.61072777438173   -7.22468061675526    2.88930124788439
H          22.23895861757793   -8.60880192929856    1.92861034930187
H          20.51599360700146   -6.68851278066797    3.57378724683467
H          24.04403980249205   -9.82665400880785    6.63403269139170
H          22.49806711773348   -7.07404064451607   10.20006625549213
H          21.09355156927933   -4.55934124179527    9.54956446349826
H          22.83125185088532   -4.70441995685242    9.85802867545713
H          21.66300627740352   -5.02110548201622   11.15846504411052
H          19.46256174810015   -4.92335167782689    5.97948780531907
H          18.74806689920477   -3.87696391478254    7.23263499671723
H          17.90178679643948   -5.35100851509638    6.70698693638820
H          19.49929381087347   -6.53119727886630    9.78381916753427
H          17.36308450993111   -4.47785516094793    8.97607450663785
H          17.51749327526136   -5.40262387065776   10.54181761353336
