88
 SCF done       -140.010593639884          0.000735995913
C           4.84543799267374   -8.45645115149540   -4.32244218676786
C           5.55619499954397   -9.41030213885756   -4.99922717688849
C           5.21250583896451   -9.98810771766465   -6.29812517087927
O           4.22475866060429   -9.63048042657963   -6.90259602130121
C           6.15985989557780  -11.03966123093487   -6.81728987584976
S           6.97375656670476   -9.87190948084245   -4.10333242697545
C           6.58495772751289   -8.77944673560477   -2.85157719461700
C           5.42064570840971   -8.08117057624328   -3.08188322650307
C           4.82729741314918   -7.08595938850132   -2.22493296482591
C           5.30011465405450   -6.72567582801429   -1.01602236715182
C           4.74436457988234   -5.72564864573038   -0.16274130856559
S           5.05889495220391   -5.84258002515149    1.54436055126603
C           4.08183431815776   -4.46398460294611    1.84886128094070
C           3.53654632322434   -3.92853560161694    0.72605362247882
C           2.70051647416470   -2.69208914390124    0.76037973829240
C           3.91916070291465   -4.64310017457096   -0.45601588582631
C           3.63456347301637   -4.24594807160471   -1.80562788588927
C           2.53369787766790   -3.59296972056566   -2.25186266854013
C           2.37528040871516   -3.19059218120324   -3.59865352610332
C           1.28865970002543   -2.50969722321907   -4.06817805111699
C           1.16434138865592   -2.07595832977420   -5.39510001278751
C           0.12474612011341   -1.32925142103201   -5.89361250485051
C           0.00110256706784   -0.83827918893017   -7.21468606140468
C          -1.10931470331765   -0.08006073019912   -7.43127390136095
C          -1.93602229293860    0.06562490989958   -6.29580959387577
S          -1.25497970020164   -0.80409109425389   -4.93770397961375
C          -3.10965078729771    0.79141115890501   -6.20734567175040
C          -3.70501360510173    1.57421727534940   -7.22017598654942
C          -4.84638901756208    2.21419146561536   -6.84118692633746
C          -5.23717606854154    1.96556072903759   -5.50481548358252
S          -4.07494109548636    0.87266406807740   -4.75171882299564
C          -6.31475679650115    2.40319743518556   -4.77196987533767
C          -7.29635226127237    3.34350904414700   -5.12361229265554
S          -7.20207776007581    4.28796060814144   -6.58881465732101
C          -8.64191552150967    5.12993950353186   -6.18572458629111
C          -9.20492032349024    4.71912130880403   -5.01954567923891
C         -10.43447506468610    5.37779315433491   -4.48496161511128
C          -8.45183589868892    3.67911805581615   -4.38782300223846
C          -8.78347150750444    3.02007446924658   -3.16292319259160
C          -9.99816185094593    2.94049723979287   -2.57067344499857
C         -10.21540385747493    2.23816209831891   -1.35128083958855
C         -11.44080943579823    2.12662182834424   -0.79134456860723
C         -11.74409712731114    1.41463016627983    0.41561585681097
C         -12.99331280606299    0.84855117094620    0.66089419864151
C         -14.18290390451162    0.88877825377646   -0.17399803351916
O         -14.20621078698970    1.42619473844297   -1.26524526441763
C         -15.40785109399055    0.22047277653633    0.40719015179389
S         -13.01726289643900    0.00521826745188    2.18226739823067
C         -11.38912203628125    0.42253691849517    2.48354763014488
C         -10.82634173269530    1.17315868929915    1.49068282394326
C          -9.48786823665452    1.73830471505282    1.58897727790974
C          -8.46130732214920    1.13605767575893    2.17360215748279
H           3.93299905981928   -8.04111810058470   -4.71185047419627
H           6.21296655116450  -11.86864462607849   -6.11424271615693
H           7.15842046719956  -10.61935027499780   -6.91998740706102
H           5.81418614322327  -11.40034952704013   -7.78201879700234
H           7.24146680943554   -8.70988707925062   -2.00711466342902
H           3.92093084099189   -6.63684015057000   -2.60397661886367
H           6.14975872947638   -7.25303194414343   -0.60168440771190
H           3.97007084872618   -4.11693588217392    2.85757981166822
H           2.84746891251377   -2.17074547726272    1.70357750930850
H           1.64246639174177   -2.93762512086713    0.67219043751160
H           2.96962113862065   -2.02802217399695   -0.05867257022505
H           4.40178373884453   -4.50133596925256   -2.52791672361974
H           1.71348752729136   -3.38224106392726   -1.58242394418875
H           3.18061256635745   -3.42188946752966   -4.28524657199710
H           0.48197735543972   -2.26534153950212   -3.38783667467454
H           1.95919283934384   -2.32617127768259   -6.08665454747890
H           0.74383804057977   -1.05621602788472   -7.96198980331219
H          -1.35479278502339    0.37424180468553   -8.37420371560039
H          -3.27495936699332    1.65264336790938   -8.20249236972980
H          -5.41892652605634    2.84022115113930   -7.49941657051012
H          -6.40369873758318    1.97509120002257   -3.78267162213266
H          -8.99438895146258    5.89906219404247   -6.84487212823468
H         -10.59079545207023    6.32729379451605   -4.99292217013057
H         -10.33833690221614    5.56157369048926   -3.41696571072809
H         -11.31408562019756    4.75808556980648   -4.65669557645527
H          -7.97009235432357    2.49744435870367   -2.67485899376663
H         -10.87235155730561    3.37582200382624   -3.02528798888451
H          -9.35939329279457    1.75400634731938   -0.89945040637997
H         -12.29312657659454    2.53977986965433   -1.31272667276133
H         -15.66822991726805    0.67609536930754    1.36022622659147
H         -15.20865056861896   -0.83576925231101    0.57748757178791
H         -16.23854521035792    0.32536650395855   -0.28580389233659
H         -10.93304169836629    0.12284994862670    3.40694222214515
H          -9.37220944485169    2.72551772417552    1.16005047179437
H          -8.54311026225147    0.14444313899017    2.58632723202986
H          -7.49594558805753    1.60654002275951    2.24444350174362
