106
 SCF done       -178.918421959292          0.000991475409
C           1.01405715215954   -3.32047502925948   -2.91817795140355
C          -0.30515028785807   -3.16387242750653   -3.24925014271124
C          -0.94709168459237   -2.23169578845754   -4.16999795404772
O          -2.14698136740524   -2.23225491746813   -4.34123333679235
C          -0.02167008352692   -1.27752619581144   -4.88868003323840
S          -1.31252769088917   -4.29756150500903   -2.39550984082120
C           0.05254078479604   -4.95712878147846   -1.61881943123858
C           1.23952470717704   -4.35368158667179   -1.97544883522880
C           2.51201408976928   -4.76787978165287   -1.43650942783056
C           3.69056924478815   -4.17739755440927   -1.69014349975870
C           4.98275262204770   -4.57625801231117   -1.17405362963665
C           6.08499555388515   -3.74328777708555   -1.42275658953024
C           7.32558882258620   -4.08691633511093   -0.94496002008246
C           7.50243210097203   -5.27640312790010   -0.21906495627662
C           6.42420331077849   -6.11665788707155    0.02548732792711
C           5.18020537358315   -5.76033430200747   -0.45110988580779
C           8.88769376286318   -5.37470578188694    0.17364146817557
C           9.57527899044868   -4.24196028369708   -0.30639519151475
C           8.64657025898706   -3.36573392930611   -1.11860538434291
C           8.59657754927524   -1.92443158129538   -0.59156012318469
C           8.11788170378874   -1.85322430234355    0.85417728322362
C           8.98784883699967   -3.41219625976773   -2.62679815668917
C          10.36482841136843   -2.88940858227851   -3.01423499496897
C          10.89628980725200   -4.05593943856007    0.01133282945464
C          11.58199608738450   -5.02189102381710    0.77695588177016
C          10.88378737669773   -6.16385867031948    1.21396095141228
C           9.54846817115456   -6.33741530084171    0.92721827326166
C          12.96413916383677   -4.80274704073043    1.07897717233425
C          13.75897790687861   -5.65229640213777    1.78904848861419
C          15.11569662924351   -5.44392133918191    2.07474909215847
C          15.84906717373174   -6.36524207736170    2.79158010536031
C          17.21102157607638   -6.34110874731568    3.16482555227000
C          17.61450289966831   -7.44062114113946    3.87227693263496
C          16.58742496078116   -8.37949203447748    4.08957315499942
S          15.09792566282142   -7.83854017376845    3.37924110548059
C          16.59464369823583   -9.60602993064222    4.74618683656862
C          17.63318350635852  -10.29765196730317    5.38351285394971
C          17.22529330281271  -11.49880661085311    5.89783523234342
C          15.85937284944183  -11.80198100152277    5.68890763528155
S          15.09127072757124  -10.50707162386275    4.81773875540346
C          15.28002354034431  -12.98080954210605    6.12992960625236
C          13.97896106527492  -13.48142442857218    6.03788778906837
C          12.85644781984494  -12.85046193286393    5.42334232886665
C          11.55051440068128  -13.47627465802623    5.39715984652821
N          10.50289675022450  -12.80554930483730    4.87371733591441
C          10.70769595244617  -11.64491228713478    4.30888232661079
C          12.00804401167617  -11.05706304156552    4.26057311084850
N          13.02434570975536  -11.66828377604985    4.84999055137881
C          12.18529814094721   -9.82120692569648    3.61347159411313
N          12.24251277955794   -8.81019813349275    3.06966324851225
C           9.61185362969176  -10.95571402663312    3.73114503942347
N           8.75293311392598  -10.38006055825068    3.23670189016295
C          11.32679408137360  -14.75600356608900    5.91172025142551
C          12.42407606239596  -15.40342005066836    6.50496081410349
C          13.71979119540467  -14.77556656529518    6.57877101771566
N          14.61729470117834  -15.55717222915985    7.16760362226722
S          13.91383238573298  -16.95092001548471    7.57600544974679
N          12.43327162676952  -16.62915913806214    7.03086113212930
C          10.02524947664232  -15.39223865073525    5.80271636084667
C           9.29679906610020  -15.41425471261220    4.63032944236931
C           9.70880174869056  -14.93961498271142    3.30834376367811
O          10.87538608997450  -14.83173122222552    2.99128639595398
C           8.57819049984999  -14.59606951402617    2.37264113685939
S           7.76686819226620  -16.19870044849522    4.86295710593164
C           8.12714091755311  -16.50615176536104    6.50483321443047
C           9.34779356611831  -16.02406203981059    6.88925165842189
C           9.86797501305714  -16.07885808806961    8.24574349991120
C           9.55773091332419  -17.01120022870300    9.13572132112104
H           1.79973361754439   -2.72056136088912   -3.33896700837569
H           0.50997324628566   -0.66226637410679   -4.16625117053892
H          -0.60489731671051   -0.64042780316939   -5.54769171296396
H           0.70630451322423   -1.83543672054897   -5.47307057057027
H          -0.07281423866360   -5.76586330929611   -0.92469122886031
H           2.46068860494311   -5.62110882448614   -0.77484596623230
H           3.71178449488866   -3.30586575540364   -2.33182520835421
H           5.94172650129229   -2.82904137799014   -1.98198976376648
H           6.55780319977853   -7.03392929928552    0.57845026284563
H           4.34373098752490   -6.41646769301192   -0.26826386622128
H           7.92792338937434   -1.33839960127882   -1.22593004530349
H           9.59258744359626   -1.48451646979774   -0.65768015145052
H           7.11169855736746   -2.25575379285643    0.94718604751178
H           8.10896070343523   -0.82076984276131    1.19658293694102
H           8.77603104684876   -2.42640506703956    1.50366648075659
H           8.22592247731122   -2.83584099193385   -3.15677488047057
H           8.90287316859374   -4.45117844221344   -2.95621017949585
H          10.50187889450101   -1.85830344802569   -2.69891052573170
H          10.47166684970987   -2.92695200521808   -4.09641193501819
H          11.14859534716829   -3.50211219220972   -2.57763834767361
H          11.42704773924079   -3.16926077014427   -0.30430556131945
H          11.38826231799360   -6.91809817864593    1.79505121598627
H           9.02506815320928   -7.20893291727055    1.28981508771439
H          13.39821556109423   -3.88440406516849    0.69940416637159
H          13.33622981644156   -6.57144433124573    2.17042141632047
H          15.60900408582873   -4.54607554978978    1.72585529492585
H          17.85513346304243   -5.52009427354257    2.90184111552615
H          18.61473073759705   -7.59502894311785    4.23681857218041
H          18.63813167321091   -9.91862210528969    5.45095049625251
H          17.87190210613242  -12.18109928717597    6.42202131502773
H          15.95993793369273  -13.65340977134599    6.64161264140136
H           8.02939097933661  -13.74798413009483    2.77953059771794
H           7.89102079530201  -15.43435675521153    2.28041559455040
H           8.97560546132479  -14.33244535930351    1.39604238168111
H           7.40095977493046  -17.00459223234251    7.11611323299939
H          10.55297541940362  -15.28358400903321    8.50796371529456
H           8.90299744441591  -17.83178105244395    8.89668586501981
H           9.96483893646091  -16.99715781061133   10.13176128281957
