112
 SCF done       -177.029542368037          0.000855044288
C           5.26620762578736    1.87139780160737    5.21578256871175
S           6.10582733814027    3.11314535153674    4.37769038176341
C           5.59314822979776    2.46997413296983    2.83879413068433
C           4.80856612224091    1.35213931475175    3.01127501079245
C           4.62807148455050    1.01135135352899    4.37552380175414
C           3.79331928359725   -0.15224539994174    4.81334454480313
C           3.57577137057897   -1.12618508235057    3.65651960554106
C           3.11637953998505   -0.39063841933429    2.38419177816309
N           1.89422834078305    0.38222179673635    2.53150642869664
C           4.22831518828803    0.54151127028978    1.89344663652471
C           5.98000055165075    3.08660642355989    1.60752815282033
C           6.75805979497816    4.17749222757809    1.52100738563860
C           7.17278197122039    4.76385776830414    0.26099313137158
C           7.49138962276700    3.95493688077920   -0.79023488975666
S           8.01945012402956    4.77631159755838   -2.20254825169090
C           7.77181904683449    6.29387121160984   -1.40001877184413
C           7.33756148706431    6.16151366957661   -0.07347163249158
C           7.10420697875028    7.33989166942805    0.67601204221415
C           6.58268593823401    7.20288044508627    2.08376271313161
C           7.72283699844099    7.08781373117058    3.09990446763739
C           7.36497542410157    8.59018469432048    0.12914331356248
C           7.17347484287003    9.83328584289235    0.95889580759738
C           5.80675090125929   10.47104185803203    0.69538886691941
C           7.77770132483778    8.71884089007741   -1.22195849045808
C           8.08352403248296    9.87723860076546   -2.04148641366224
C           8.40510682395182    9.50740899047453   -3.31843805010239
S           8.41680840853369    7.82040530426487   -3.61534766232379
C           7.95539597811263    7.54217166530757   -1.96888040981955
C           8.18470135341114   11.26926560064749   -1.65119197654871
C           9.04942948187449   12.10846883350737   -2.25187864992834
C           9.33053348924794   13.44998931822930   -1.86059118674916
S           8.19552639297610   14.39041383842527   -0.93575849204421
C           9.22109374687951   15.77193890723132   -1.01968088564796
C          10.36718043624112   15.54454116557682   -1.70750646590188
C          11.43059939930518   16.57046502229616   -1.91955677954188
C          10.46040751754912   14.19693223112285   -2.18229431013172
C          11.59513650101427   13.69496589643667   -2.90722440480654
C          11.96975110555546   12.39366874131531   -2.94110202100103
C          12.93065297000912   11.82493664347499   -3.81650839584687
C          12.92433408990271   10.48425089281149   -4.06403978229321
C          13.74674314781407    9.79575958472253   -4.97111754618045
C          13.49625410257619    8.50653869852961   -5.37249735397558
C          14.28669530653493    7.68913867143497   -6.21647456715926
C          13.75849431843901    6.45820536396480   -6.46245868234746
C          12.49971951466336    6.23822158227602   -5.85760437543233
S          12.03205140213913    7.63844351620758   -4.91612884112804
C          11.68224554901238    5.13183511428346   -5.96603272730927
C          11.97457083771698    3.89982921072405   -6.60218221526769
C          10.97072662746757    2.99065223798964   -6.52061436678496
C           9.80410600832905    3.45420346752302   -5.84385864088595
S          10.06158812155316    5.10519757385123   -5.30357079885563
C           8.70573064257208    2.69638072942103   -5.57171689006883
C           7.48066558656042    3.12166170109135   -4.95894554157134
C           6.76319500213288    2.23612606388229   -4.14886888128198
O           7.35527640913439    1.01912111295747   -3.98175602130057
C           6.59421563789068   -0.12892557070409   -3.67479560293298
C           5.56509131477582    2.64372224460835   -3.48090694261498
O           5.01578010736269    1.73636097184837   -2.61730167550073
C           3.83802990034367    2.08920629065905   -1.93309671036860
C           5.03080596008016    3.89374082121374   -3.68381848798521
C           5.68390211253886    4.77677209102355   -4.55311340732343
C           6.91989732950002    4.40489644276817   -5.18292215067523
N           7.36378456861739    5.35175132986555   -6.00253864478522
S           6.34678501301719    6.59846871067693   -5.95594210442267
N           5.27912221490418    5.99429756452707   -4.91121817826180
H           5.29348107881243    1.84874864958385    6.28734981201531
H           2.82645917181248    0.21542050121464    5.17619718909757
H           4.27284627672863   -0.66248407809390    5.65188710345673
H           2.83112348694459   -1.87388784243696    3.94106440092152
H           4.50911031576075   -1.64792165856694    3.43591203846393
H           2.91636425371187   -1.13907854268926    1.60546644396306
H           2.04797464518837    1.16117938775593    3.16292584924683
H           1.15217110925331   -0.19265072878676    2.91550142814754
H           3.81059229143824    1.20011563729961    1.12959928551622
H           5.02231659015169   -0.05252143008962    1.43032418795679
H           5.58749695783220    2.62762993918979    0.71058144978454
H           7.13576511747161    4.61097534719637    2.43439171067978
H           7.48985057724859    2.88206541682319   -0.79448700538564
H           5.95043322884522    8.05088674508784    2.34403144809760
H           5.95207865848151    6.31504959443978    2.13640944760839
H           7.32897699078717    6.85544672737181    4.08727208372150
H           8.28235836715814    8.01853756037094    3.16133609561797
H           8.42210456532783    6.30707039701792    2.80966125928495
H           7.97356234765205   10.53622374233908    0.72953510248156
H           7.25901545857059    9.60678981297850    2.01932940451103
H           5.01061567260125    9.80962106624034    1.03109484889049
H           5.65879367740471   10.65272704391102   -0.36633710961931
H           5.71831059563546   11.41587297302942    1.22816936989385
H           8.63145855819472   10.16048549543558   -4.13823783409283
H           7.60007786342617   11.64279924919379   -0.82817199305014
H           9.64031561536034   11.75242749826180   -3.08270822772012
H           8.90807593505660   16.68091913395682   -0.54431456816269
H          11.16205515030611   17.50228716925687   -1.42835069038058
H          11.56421422013273   16.76448350121382   -2.98373421713956
H          12.38048520823510   16.22072668635704   -1.51705188544971
H          12.15829887083363   14.42166532500088   -3.47940479907573
H          11.47136855367843   11.69019319912316   -2.28863929338934
H          13.59653536576483   12.47812166619253   -4.36486157611237
H          12.17713517439364    9.88213753927454   -3.55805872845348
H          14.60667234357586   10.30083653186362   -5.39094560457287
H          15.22678222725941    8.03646195413577   -6.60889146250669
H          14.22775520130916    5.71221145660140   -7.07903924246284
H          12.92041221601401    3.71811160332569   -7.08134206768163
H          11.01277700502259    1.99670777462494   -6.93086000573946
H           8.77445714098174    1.63841952881404   -5.79041163354127
H           5.66956525548825   -0.16949281164646   -4.25458966526140
H           6.35498040816779   -0.18537164966522   -2.61098614548681
H           7.22917221074818   -0.97306459428689   -3.94712556415781
H           3.58298392631579    1.22119385088846   -1.32624089060737
H           3.01735462090527    2.29711992999209   -2.62600640107174
H           3.99498230756240    2.95805789748826   -1.28591746990450
H           4.13362522435886    4.22707759052181   -3.19275737273936
