91
 SCF done       -171.072479568677          0.000251446023
C         -10.88216308904176   -8.55160879274906   -9.18738093243625
O         -10.31676902558189   -8.66017848240369   -7.97066498155972
C         -10.36581562247722   -9.49812791966164  -10.01585014100444
C         -10.40073107598151  -10.05997694978814  -11.37561381181302
O         -11.04825188499286   -9.75709795331817  -12.34224760572273
N          -9.46960862049165  -11.09056331170258  -11.32441339383315
C          -8.83194504374982  -11.26872499278504  -10.09300911512802
O          -7.99963386116348  -12.11009534203960   -9.86784792383390
C          -9.41656085428999  -10.23527517371324   -9.24662969678896
C          -9.41621702405994   -9.68409911394856   -7.98043904692632
C          -8.69795976552988   -9.98455828515544   -6.79200825940989
C          -7.78542756210809  -10.98221634926252   -6.71839686275934
C          -7.04953834555634  -11.30215218336120   -5.54941769602819
O          -6.13725385612077  -12.32125911993799   -5.62592812895191
C          -5.58307772544214  -12.41342263736841   -4.41775403077164
C          -4.70850111880165  -13.22587395042630   -3.66142261288038
C          -4.08559953343774  -14.46019266341210   -4.20135626564499
O          -3.58561921631129  -14.51045331408549   -5.30153827909746
N          -4.25931654170360  -15.55409625446847   -3.41581482010671
C          -4.73945381189759  -12.66900919111204   -2.38128671038832
O          -5.59676125925971  -11.59173785421306   -2.32560779577452
C          -6.12547590269070  -11.45841860634637   -3.55281427989086
C          -7.08382596168597  -10.74647470294291   -4.27114214425099
C          -4.24065803316457  -13.04767156795545   -1.09954738126560
S          -5.20480142603115  -12.44349131893044    0.21298941631673
C          -4.39351051745529  -13.41535119221370    1.34387239551161
C          -3.38675041609007  -14.17949713880426    0.78365490407381
C          -3.25052831475153  -13.91737288818881   -0.63566392466945
C          -2.18356060832121  -14.50031277386400   -1.38079669299029
C          -1.43822580060964  -15.47493455102614   -0.74559662504737
C          -1.64102521716700  -15.82328276246392    0.58797567969713
C          -2.54929147292939  -15.16591333482573    1.38831063598030
O          -2.53274445037744  -15.57056239147970    2.68844620783773
C          -3.27489399077853  -14.93973459202581    3.69942920847312
C          -1.78020428476479  -13.99902464157820   -2.67707068634913
C          -1.16105991523112  -14.76929325049680   -3.59503199821662
C          -0.46803040109991  -14.41300280761960   -4.78475447328488
S           0.17594892316998  -15.76060893992858   -5.69076912774900
C           1.17486109965944  -14.75200266092499   -6.62697990674003
C           1.03790389672132  -13.42753818797842   -6.29009746280039
C           0.04414701184918  -13.21196340661690   -5.27674367944377
C          -0.30261722704834  -11.89608293900549   -4.86197210875407
S           0.78497647109181  -10.60183720832275   -5.02127276274728
O           1.95538036479702  -10.63638890912458   -3.69267636949852
C           2.27834505593389  -11.87973472147425   -3.15298598671490
C           1.86335624598162  -11.13335202979798   -6.32391834735802
C           1.82266930325865  -12.37665042768373   -6.84237104739833
O           2.64560023049611  -10.18612601769095   -6.89638544109318
C           2.73837076662703   -8.92578189679362   -6.26859611396784
C          -1.60461297898743  -11.45515746867904   -4.46023008192159
C          -1.78830281152594  -10.38822722873632   -3.64858878198111
C          -3.01094910044597   -9.67586328781214   -3.45482405118207
S          -3.37285057323537   -8.97759541774069   -1.91115820383535
C          -4.78064657047419   -8.20726228117440   -2.49799416827972
C          -4.97656473044641   -8.44564759102154   -3.84115664658850
C          -3.97047974847617   -9.30830010044992   -4.39694193436173
C          -3.99515215194472   -9.61164257011415   -5.77676423694447
C          -4.97031012468242   -9.07152630428556   -6.56011051338625
C          -5.96264106668167   -8.22307205181836   -6.02759913429792
C          -5.98855050110902   -7.92013181656287   -4.69607035996670
O          -6.98123840388118   -7.12003179613805   -4.20769430186780
H         -11.61480933202295   -7.78138537199310   -9.32413453404945
H          -9.26639655974626  -11.67443109156813  -12.12333224837636
H          -8.91800854710037   -9.35998387385093   -5.93994138666018
H          -7.57321545465631  -11.58983834074287   -7.58774757211778
H          -4.54895977769930  -15.47151767708897   -2.45818698470829
H          -3.82500578609064  -16.41350745884651   -3.70964659911130
H          -7.72224678088831   -9.95778077592512   -3.93632437868665
H          -4.72918819236503  -13.36659314498885    2.35728239729072
H          -0.62251246640729  -15.94262411002257   -1.27397852439649
H          -1.02649902466145  -16.58105632889330    1.04709616695379
H          -2.94470753241875  -15.40808610540753    4.62706162302019
H          -4.34906835802369  -15.11261499187893    3.58147518940203
H          -3.06650742131789  -13.86742979598944    3.74901151587404
H          -1.94081191552764  -12.94702688461071   -2.85001775550999
H          -1.13490624226950  -15.83731044741568   -3.40761193291741
H           1.83096673779613  -15.17013932138267   -7.36397725602620
H           2.91775574546715  -12.45670089841773   -3.83202709728536
H           1.37253025306878  -12.46091319418442   -2.93696487023713
H           2.81265404145585  -11.69433931571033   -2.22097563744220
H           2.46044649297529  -12.59864354746140   -7.68558861882795
H           3.53834485402508   -8.39987267446194   -6.78657893702639
H           2.98302991842531   -9.02056860902216   -5.20743309197536
H           1.80482434711910   -8.36353935640336   -6.37515383643887
H          -2.44367621572140  -11.98701191201670   -4.88894335870414
H          -0.93547882744125  -10.01332638884354   -3.09289243797913
H          -5.36827975918394   -7.62542207961791   -1.81409841740502
H          -3.23231443620628  -10.24842980704327   -6.19393524062686
H          -4.99548131436639   -9.28680585756331   -7.61709019534441
H          -6.71811973212203   -7.80474741590910   -6.67245434303084
H          -6.82123054354583   -6.93665960705404   -3.27551299893610
