77
 SCF done       -170.003394173956          0.000539278021
C          -3.64804698688944   -2.59416190007614   -3.39705643582117
O          -2.94825917716320   -2.92241395470607   -2.29967775230015
C          -4.30568972749580   -3.69036383989727   -3.86776876388073
C          -5.21443701696528   -4.20539879126473   -4.90874078586262
O          -5.73460800820968   -3.66148848206159   -5.84316239916928
N          -5.36604159968850   -5.54738043590593   -4.57172007420810
C          -4.66974396263738   -5.97299677466230   -3.43976603899455
O          -4.68720849898151   -7.08735440105059   -2.99285054450175
C          -3.97637630128779   -4.76087319307669   -2.98913142578320
C          -3.13216456450987   -4.24501646858926   -2.03002513888204
C          -2.50781503933702   -4.87070502687455   -0.91292494961894
C          -1.74777365580280   -4.20929843150567   -0.01352917665631
C          -1.13809561632363   -4.82946671777398    1.11196693861221
O          -1.22794271040111   -6.17014078027209    1.31882509147906
C          -0.41496674467881   -4.27697153814500    2.15142139064756
C           0.12606794511210   -3.02497536105517    2.69778165884300
O           0.06991192715158   -1.89566647731145    2.29119903438486
N           0.76786150341424   -3.43098451516529    3.86632047526856
C           0.70867135822935   -4.79596886148353    4.14287163276777
O           1.20307804724806   -5.33663623953647    5.09502925045673
C          -0.06737631871951   -5.33788835069914    3.02049875850117
C          -0.58450718693378   -6.49529924346318    2.47103610326779
C          -0.51135028092843   -7.83573461869332    2.93582097917654
C          -0.95283739222762   -8.90559934488861    2.23627786907947
C          -0.86873150431546  -10.24065759578138    2.71578817701756
O          -0.44516507687859  -10.51327201796440    3.97831202660839
C          -1.15651127626235  -11.43745618452282    2.08888081399360
C          -1.61565431969133  -12.03870114658665    0.82855259605490
O          -1.93586100811822  -11.53639988376231   -0.21452091164758
N          -1.59980469491435  -13.40363645107537    1.09908194305101
C          -1.18172552665173  -13.76257796522312    2.38188397365811
O          -1.10660380194723  -14.88657822616863    2.79326922969402
C          -0.88895249409188  -12.46889986542657    3.01925782537274
C          -0.45359839873273  -11.85932434167265    4.18185493273667
C          -0.07123656849398  -12.41104748802519    5.43445728074474
C           0.26271086637104  -11.64731669600996    6.50152984285105
C           0.63117466462181  -12.19280694991957    7.76035187620577
O           0.90543581604311  -11.35648633560449    8.79657253066345
C           0.78005888984876  -13.49467493347415    8.20376012341606
C           0.70124062266271  -14.90768214766828    7.81335949370582
O           0.42031484733562  -15.42104831912325    6.76349104950895
N           1.04059041653273  -15.58976954012643    8.97954824066204
C           1.33112036829645  -14.78720790309833   10.08093746324647
O           1.64214437121711  -15.18651534962027   11.17129806117805
C           1.16006942880215  -13.42375457389238    9.56440087467831
C           1.22596906555676  -12.08417946652527    9.89853584392451
C           1.55047502560169  -11.47042110925016   11.13757099794238
C           1.56348996115885  -10.13412586493433   11.34377909203514
C           1.88382014758210   -9.54136181244940   12.59566513323168
O           2.21126151899658  -10.30635141388094   13.67305607036420
C           1.93297540433073   -8.21621456429062   12.97739449589563
C           1.74299115183268   -6.83427820344514   12.51972652747131
O           1.42138814461734   -6.39209509452566   11.44950960398844
N           2.02449461465409   -6.07506973672992   13.65424932791607
C           2.37129315456958   -6.79933120130865   14.79406197409807
O           2.64514504583378   -6.32141245668218   15.86221511814408
C           2.30796094038560   -8.19533188452226   14.34472821395546
C           2.46955069311967   -9.50628967456677   14.73661281150786
C           2.83865917119462  -10.05699691285074   16.01051299892480
C           2.94384816210823  -11.36259628561170   16.25104730372497
H          -3.59608296327751   -1.57643544729701   -3.73046976290664
H          -5.94707121190765   -6.17407052411286   -5.11113191517214
H          -2.69076175563590   -5.93110167278470   -0.81621655240974
H          -1.57811094745004   -3.14604271297542   -0.10293492382088
H           1.24500079320236   -2.77897615348922    4.47304351952027
H          -0.04976766920393   -7.96003434134302    3.90471291413312
H          -1.38288760900046   -8.79075624899526    1.25200270170904
H          -1.87199353987510  -14.09285227048970    0.41221650482709
H          -0.07213071505860  -13.49098224641415    5.49309637723404
H           0.25103715587744  -10.56860679558040    6.43400962139757
H           1.07380888244837  -16.59866868869159    9.02180745063285
H           1.79074826899574  -12.15519473979849   11.93797654000147
H           1.32332450619294   -9.44338508938590   10.54876776683372
H           1.97791489713560   -5.06581220819975   13.65156452275430
H           3.02591099962825   -9.31632973495303   16.77460286859379
H           2.75269569569516  -12.09194339339487   15.48194464204931
H           3.22176739707584  -11.73399438758648   17.22107907137215
