113
 SCF done       -215.405693757131          0.000669447267
C          -8.32135434852558   -9.60718759621453  -11.47281488900044
O          -8.73957293947038   -9.20961987425592  -10.25668465516933
C          -7.41527365547303  -10.61108802102319  -11.33545342777294
C          -6.52406530993119  -11.53674612484709  -12.04979385833204
O          -6.32716157993479  -11.70010207968514  -13.22571473984807
N          -5.89075722959505  -12.23498576901188  -11.02879798559788
C          -6.25906380848004  -11.86565223046664   -9.73616814377028
O          -5.77486099459268  -12.32873618024715   -8.72950213240799
C          -7.26706756694533  -10.83504929240421   -9.93298137441299
C          -8.11401253677966   -9.94755705271842   -9.29771088483877
C          -8.41679734168778   -9.70939351502173   -7.92684239263462
C          -7.87426888707223  -10.45752159904668   -6.94169934281475
C          -8.01590429561515  -10.25593141510352   -5.52411796755577
C          -8.62952000655141   -9.10226851953017   -4.99825987842074
C          -8.59921624890246   -8.79073941799762   -3.65914137512097
C          -7.87098014296248   -9.57770164636389   -2.76711341552083
C          -7.27057264981616  -10.71376825375710   -3.24892082109768
C          -7.41558478983821  -11.11348751760961   -4.58872165705844
N          -6.85454624949958  -12.37032452943772   -4.74565741008009
C          -7.00595414122859  -13.27758752834657   -5.85481994503368
C          -6.23419948721429  -12.79014248682068   -3.58983674025176
O          -5.71367930767368  -13.86830697321658   -3.44452606447201
C          -6.29181962673356  -11.63999765662188   -2.59755269745619
C          -4.89093118237567  -10.94524225591975   -2.58855750335885
C          -5.00960687458731   -9.70048588751303   -1.70656081055357
O          -5.12551606426924   -9.66071239092912   -0.50568486285248
N          -5.03237033198189   -8.61268272757559   -2.53629280069214
C          -5.22363032080100   -7.26392262436947   -2.07678243995110
C          -4.86601452061385   -8.97972271383638   -3.86340850127091
C          -4.96346861635208   -8.20300688647346   -4.99503094809418
C          -4.82092065819634   -8.82272300215504   -6.24780440307911
C          -4.47607339810341  -10.17805060489819   -6.30942916179478
C          -4.38160541694794  -10.94977417146645   -5.16235718821027
C          -4.63470377220924  -10.36022290063058   -3.94176079115236
C          -5.10583604493302   -8.02751265544236   -7.41600501231834
C          -5.14208252108671   -8.45241798835794   -8.69671325301754
C          -5.52758615242247   -7.58795519760205   -9.75836243780637
O          -5.53036229175199   -8.05070267185667  -11.03947443857245
C          -5.94554961401946   -6.26941645054617   -9.77139339955104
C          -6.23797412288575   -5.10083617656226   -8.93719500049745
O          -6.17690897208241   -4.94747198989935   -7.74138662939407
N          -6.64474930764357   -4.13531726470109   -9.84781103553370
C          -6.66342934511799   -4.54368727008485  -11.18499360668411
O          -7.01897614102061   -3.86375748613094  -12.11076708021838
C          -6.19583675259889   -5.92879115299723  -11.12225654759533
C          -5.92612499570841   -7.05129702789069  -11.88571071713919
C          -5.99752425386479   -7.23101302604541  -13.28361487890185
C          -5.84933148782626   -8.43938883553915  -13.90005278514534
C          -5.88947826895819   -8.69448181045935  -15.28226783483975
C          -5.73970437748264   -7.80441737880354  -16.31930171109932
C          -5.80583721669293   -8.13926212072272  -17.69692298825559
C          -5.52336253272734   -7.10932469359850  -18.54092915033991
C          -5.20096818023606   -5.90434148864083  -17.87580989023293
S          -5.31753791524975   -6.10997491298168  -16.14808398940930
C          -4.80414759651815   -4.70193232036839  -18.43843075859034
C          -4.69633318550348   -4.37758132679992  -19.80752480418007
C          -4.23172152853165   -3.11514110447374  -20.03461604163032
C          -3.94299011305257   -2.38636448647029  -18.85803043565843
S          -4.30758126359479   -3.35131185706915  -17.44598742665808
C          -3.42220100594447   -1.10800795875421  -18.79039599511740
C          -3.12100558892989   -0.47523114924997  -17.58853276466744
C          -2.57943434654997    0.78964807473808  -17.47431157349011
C          -2.23598305103062    1.47058662359534  -16.25211017019802
C          -2.29300320018945    0.96610774181672  -14.97311180499586
C          -1.95059677100879    1.69816441411876  -13.81945033896278
N          -1.69053860813183    2.23971015947835  -12.84007346189205
C          -2.66741869152303   -0.34625641038241  -14.62158784827028
N          -2.93155137588265   -1.40021983323384  -14.24698652189507
C          -1.76712063617288    2.80954489453823  -16.60568540457628
C          -1.78032910067369    2.93626224414842  -18.01589578361295
C          -2.28229385496121    1.68032713577143  -18.61292246044092
O          -2.41625189310537    1.45430676352202  -19.80033106824989
C          -1.37615287015388    4.07810099483958  -18.66178163025059
C          -0.94017032152419    5.15213898015882  -17.87760443172704
C          -0.93694274038271    5.01936142751403  -16.46992948087662
C          -1.34385294765845    3.86162745042022  -15.81660614626255
S          -0.36464897690414    6.46494145620778  -15.69252579135476
C          -0.13878067461369    7.21613618278500  -17.24979549430564
C          -0.47450932492940    6.42834794958776  -18.29835664074381
Br          0.51962351846636    8.97057602787204  -17.34386627552228
H          -8.73102109490719   -9.10290680571618  -12.32541212714830
H          -5.19771904895216  -12.94781230025901  -11.20962221049611
H          -9.11058910525812   -8.90435000911245   -7.74176328914666
H          -7.19998973928688  -11.24175796138030   -7.24268112823757
H          -9.12073043041320   -8.42536828396050   -5.67774807788725
H          -9.10207261947259   -7.90505187697129   -3.30276507294080
H          -7.77724135329464   -9.30029037746589   -1.72865100384380
H          -6.30156521024727  -13.06154604380143   -6.66004883129253
H          -8.02581468575739  -13.23692346118070   -6.23761826015914
H          -6.79627444201515  -14.27855977031718   -5.47433536883656
H          -6.53656778626267  -11.96273162763580   -1.58551502208233
H          -4.14434848438866  -11.65103513227409   -2.22324342149428
H          -5.29281762601228   -7.29443887849112   -0.99011599632404
H          -6.14403429041202   -6.84735375535854   -2.49113732500031
H          -4.38064665697252   -6.63629615612770   -2.37046128877328
H          -5.18924629361339   -7.15000635844283   -4.94002875898543
H          -4.31972071345265  -10.65083594739675   -7.26480365051768
H          -4.14296127026962  -12.00012071543038   -5.23001336306270
H          -5.36420450533770   -6.99514513843692   -7.21892972185624
H          -4.88867300890323   -9.46294175361323   -8.97865540163121
H          -6.90872907502707   -3.20176661352077   -9.56599050740407
H          -6.22895819908852   -6.33216484507224  -13.83495101165634
H          -5.73015152937953   -9.30977091903047  -13.27173740124566
H          -6.01194882017021   -9.73307888755634  -15.56265595906330
H          -6.05645940191765   -9.13560098632818  -18.01559501117896
H          -5.51584273683314   -7.18862637054298  -19.61289007972379
H          -4.96168834038895   -5.07362841763041  -20.58283303373057
H          -4.07873645788722   -2.68637380194374  -21.00892078218801
H          -3.22799556457621   -0.58970470949213  -19.71836580596177
H          -3.32983688607767   -1.02840820927684  -16.68089825278651
H          -1.39435056281447    4.14195228128065  -19.73858255845760
H          -1.32142292939065    3.81153999873501  -14.74100653137108
H          -0.39742018472091    6.73196080358654  -19.32648959682250
