122
 SCF done       -219.906774221876          0.000501732756
C         -12.55256491508826  -11.77338706768476   -2.89913865817720
O         -11.22976001998964  -12.03766568179928   -2.90365147858683
C         -13.22169912212967  -12.75327515709607   -3.56627205267365
C         -14.53559284808470  -13.26093652366723   -3.98456651214045
O         -15.64864264332875  -12.81755640112676   -3.84159154044261
N         -14.24283066457345  -14.45707140140135   -4.62110365882986
C         -12.88087140016109  -14.78809721735399   -4.68666626448425
O         -12.44485233666212  -15.79022242541410   -5.19477768491347
C         -12.23168704083849  -13.68004200534694   -4.00965334560839
C         -11.00944826589359  -13.20216048556323   -3.57774423803792
C          -9.72885096478518  -13.76942059901046   -3.78773393673206
C          -8.55321138522729  -13.42035884127468   -3.20222221507243
C          -7.32073013326420  -13.98986137327244   -3.59971088508467
S          -7.25151104313634  -14.83780486780773   -5.13264727224437
C          -5.56151484498123  -14.98329683463442   -5.04678482696176
C          -5.03413060296603  -14.44448123680627   -3.89889932526632
C          -6.04364877895545  -13.91181011731964   -3.02064907986978
C          -5.72239840351645  -13.41191091551975   -1.74650087060251
S          -4.12865033889809  -13.33842732436053   -1.15092430009147
O          -3.89290320707289  -14.82203896432905   -0.15802417522918
C          -4.51432185642770  -15.99490703079326   -0.57201940604190
C          -3.12552467641794  -13.78575843100384   -2.52941823621595
C          -3.64131623778293  -14.34167532727071   -3.64455970422191
O          -1.78894830527848  -13.60994317758526   -2.40922170156510
C          -1.27942578151668  -13.16452933957948   -1.17094766191194
C          -6.64010882645436  -12.99893783499805   -0.69384749718479
C          -6.38001205996989  -11.93609185773040    0.07951591834627
C          -6.92561268523265  -11.59406378869441    1.36510773646398
S          -7.17457746220893   -9.89457607963503    1.67535992355414
C          -7.32796634141869  -10.16404682682486    3.35147625847656
C          -7.16968950128811  -11.48212136618493    3.68432567842117
C          -6.99332975087908  -12.33592610323858    2.53700813914837
C          -6.81535000220208  -13.75101226737876    2.70445941782080
S          -6.03477738373989  -14.28652381210207    4.12377422084159
O          -4.43736864811709  -13.67156369884583    4.09414582476739
C          -3.55601638937889  -14.23800416725014    3.15816237199635
C          -6.54190909063941  -13.11249128901214    5.35710217089962
C          -7.12492202187388  -11.94719620541378    5.03707901661154
O          -6.41163176442150  -13.68696923283910    6.57918550307730
C          -6.97487019212507  -13.01383877376664    7.68427798174978
C          -7.45645304091736  -14.80472841648561    1.97919064762276
C          -7.09924790077026  -16.10915767911290    2.07200199302769
C          -7.96449532958594  -17.25261901474893    1.88551462858184
C          -7.79667120243342  -18.36087386588452    2.66945325166578
S          -9.16527349608127  -19.41283669240631    2.73535124512141
C         -10.04641322762556  -18.33818101096302    1.69270880618646
C          -9.23729461656688  -17.29762919501886    1.20915200418683
C          -9.71362763345849  -16.50383850800688    0.14388221508471
C          -8.70397388597729  -15.93136818413569   -0.80992820586289
C          -8.52764393988915  -16.91496411464806   -1.97250647477402
C         -11.07276454834479  -16.45580282406981   -0.11095648444760
C         -11.62680913832390  -15.46532998741688   -1.09748459852937
C         -11.75134081830900  -14.08870351719258   -0.42780246259560
C         -11.93724657122789  -17.32636555100711    0.58902882513609
C         -13.37595827102277  -17.43379461059617    0.51554102140858
C         -13.82700682592163  -18.59489114562584    1.08088506911779
S         -12.59679198255236  -19.53832725171615    1.81852219165845
C         -11.39001519448485  -18.37325450640406    1.34750078200493
C         -14.22157998244485  -16.35991967023967    0.08054483599773
C         -15.45252386001519  -16.41178737800028   -0.48350042401782
C         -16.07704429792400  -15.18735713083235   -0.82398948159382
C         -17.27266352032739  -15.01544109920351   -1.45608147414164
C         -17.87128763137360  -13.74280737852091   -1.81579221285379
C         -17.31621945609992  -12.49859305892962   -1.66877236956244
C         -17.96614250319968  -11.29588448460511   -2.01495070246621
N         -18.45276809261410  -10.28207697858995   -2.24589557052490
C         -16.02033722708982  -12.22270338492510   -1.18587988413368
N         -14.98040913626030  -11.90969355297336   -0.80880252564937
C         -19.18071608586780  -14.02533260154067   -2.39314985481868
C         -19.37676263702650  -15.42828424063902   -2.42402187605194
C         -18.19268043708046  -16.10308490781732   -1.85333185690300
O         -18.02920095047210  -17.30019567019002   -1.73486225104958
C         -20.52011811863970  -16.00643793011165   -2.91945843624323
C         -21.52156633307854  -15.16057739914689   -3.40635796764123
C         -21.31606732751733  -13.76108212846845   -3.37451201556290
C         -20.15893783349155  -13.17605322577198   -2.87644598366796
S         -22.68017172266015  -12.90066082534547   -4.02387704166930
C         -23.49588444234514  -14.41292375075072   -4.32224818272392
C         -22.78625655686695  -15.50641679984257   -3.95774561725934
Br        -25.20974513935428  -14.40495497061960   -5.08516277540509
H         -12.87888828329475  -10.88978711102776   -2.38778987523501
H         -14.95918060345481  -15.04328011522341   -5.02526541864880
H          -9.74149268036882  -14.58728419835434   -4.49682514812876
H          -8.52503254010495  -12.65911415882523   -2.43413140888356
H          -5.01981178210004  -15.44667087143801   -5.84742055374794
H          -3.87924906215255  -16.55582941032594   -1.26723180142547
H          -5.46972924561236  -15.77189407721928   -1.06551726921535
H          -4.71635695865050  -16.59852458893277    0.31345203417916
H          -2.95599648982958  -14.67591657538885   -4.40978489445036
H          -0.19648778845527  -13.21905406044502   -1.26550867151924
H          -1.61323001329181  -13.80237688231793   -0.34759039545908
H          -1.57523857860440  -12.12948846516585   -0.97130761811424
H          -7.47584065826879  -13.64306619998461   -0.47844660051433
H          -5.61782701430495  -11.24165028661421   -0.26305374712816
H          -7.49244389360028   -9.33835133634157    4.01477431538320
H          -2.66849220630918  -13.60607300345922    3.14942457338045
H          -3.99767012873846  -14.25285446392252    2.15620481968723
H          -3.27248972021093  -15.25513124909479    3.44534987289947
H          -7.49096160919730  -11.27671411539228    5.80059848176132
H          -6.79410472985240  -13.65571002005292    8.54393224341155
H          -8.05132372873396  -12.86937775581707    7.55112924767359
H          -6.49408312676871  -12.04427285512618    7.84425546738181
H          -8.35933959005641  -14.52389857473210    1.45433837857424
H          -6.17663868437247  -16.33974887361607    2.59454725881804
H          -6.95525599004970  -18.58660835705586    3.29539847813964
H          -9.01177321840031  -14.96369025428197   -1.20152406750850
H          -7.74220919164284  -15.83189443319571   -0.31168093263838
H          -9.45605724231761  -17.04711418643920   -2.52205036027909
H          -8.21246038361958  -17.88561415341380   -1.59588806339201
H          -7.76904927294899  -16.54922428185151   -2.66036685132085
H         -12.59929410988792  -15.80649015962602   -1.45446048868861
H         -10.98056500441245  -15.39251108881720   -1.97033982013719
H         -12.02960987381209  -14.19192394547174    0.61991685699782
H         -12.50293247062574  -13.47544149466927   -0.91850596075613
H         -10.80214793198090  -13.55843914243400   -0.45748990421879
H         -14.84849204191274  -18.90888579969275    1.17302192452961
H         -13.81789245204245  -15.37451222983946    0.26999232391102
H         -15.94240991527764  -17.34201359449954   -0.72430429724268
H         -15.52175314567275  -14.29703092603942   -0.55629668487244
H         -20.63872439046207  -17.07873466903987   -2.92979854994145
H         -20.04832626715179  -12.10481680960511   -2.87632135932751
H         -23.13780912584136  -16.51575853242662   -4.07077995803958
