102
 SCF done       -177.837309413111          0.000625032446
C          -4.17114205932017    2.26611137327130   -0.54023190158371
S          -5.31100112126031    1.02613541745020   -0.28234271245654
C          -4.08029912648754   -0.14177123020198    0.09442331092533
C          -2.81109211441978    0.47255317659586    0.09977009503130
C          -2.88081216261604    1.84872149426407   -0.29937936648636
C          -1.68452432612139    2.61569734838231   -0.39929882077278
C          -1.74293723969288    3.95847514828698   -0.81786508372578
N          -1.77380931859702    5.05787741813941   -1.14841178315929
C          -0.47983847801348    2.03831488891816   -0.06431063475489
C          -0.43737756417787    0.72652208056923    0.42485397913287
C          -1.57059521774980   -0.04011817103502    0.51433471139034
C          -4.44996133669332   -1.49941233255047    0.29706816388484
C          -5.79678663135824   -1.85400650701356    0.56947638282169
C          -6.21759016753355   -3.20321081711702    0.86163602439065
N          -7.50276695590061   -3.46331618793504    1.09817074567845
C          -8.38395193571784   -2.48283357122033    1.06253930260264
C          -7.97014876478782   -1.14331879515919    0.79755482887096
N          -6.70758604807240   -0.87267754708979    0.56338416012284
C          -8.91869367142810   -0.09152483151243    0.77937241246121
N          -9.71543722806532    0.73190627833500    0.77378089617440
C          -9.74825309799128   -2.78030698268399    1.28827112318459
N         -10.85983962149044   -2.99571347171567    1.46813884304040
C          -5.28388912865693   -4.28268199216772    0.93726538892988
C          -3.98259457134527   -3.95389251520091    0.47212531023437
C          -3.57557146378724   -2.60558478009210    0.15094200936956
N          -2.34332116920453   -2.58009868133181   -0.35330732148413
S          -1.74739876381019   -4.07092739290603   -0.41138694444406
N          -3.02939381583769   -4.83391410312812    0.19356476973268
C          -5.69041367829613   -5.52852980784213    1.43187286695498
C          -4.90731210723253   -6.54654229789843    1.94574426675209
C          -5.39433630594421   -7.71828448395696    2.57396255598550
C          -4.44666642918066   -8.44664599047831    3.24178798823314
C          -3.16803782759655   -7.86534190136701    3.18674939494568
S          -3.17918659092092   -6.46117157835467    2.14394111573752
C          -1.98998622883502   -8.13326086033780    3.87126332149147
C          -1.60623625197651   -9.17346051252868    4.74454983288802
C          -0.38496065075018   -8.98843654531673    5.32553464380052
C           0.25103166853948   -7.76446790319666    4.98068861190203
S          -0.73459072998705   -6.92916059459055    3.78212583975927
C           1.42500370520888   -7.22929101262688    5.42665977328178
C           1.83129063294503   -5.87825450491018    5.12823607961868
C           0.86873288921938   -4.85308897533537    5.06656459852683
C           1.22850293513820   -3.59202440137386    4.67013085336041
C           2.57388814641916   -3.29972136560504    4.36748782737061
C           3.54675407894121   -4.28417306706270    4.50045941440171
C           3.17436112890090   -5.55662760115534    4.88604355620553
C           2.66706996512810   -1.90638411008186    3.98935074306655
C           1.38334031240424   -1.34007080488264    4.07714321417918
C           0.36230180576266   -2.36238854650862    4.52100645385778
C          -0.68833667808289   -2.48213694666101    3.39273700565291
C          -1.88413526741381   -3.38354862029117    3.66607407153429
C          -0.28726532104640   -1.96433971032537    5.85732432984737
C           0.74135054627641   -1.64732743694805    6.93695928320887
C           1.16202125482976   -0.02775380522614    3.75106086663889
C           2.23045796231841    0.77226663684106    3.31659947470649
C           3.51142798064031    0.20130509078759    3.25438229540141
C           3.73892998143014   -1.12012331115360    3.58407528667699
C           2.03581834256291    2.14240838270272    2.90962326735986
C           0.83196436915122    2.74495346585866    2.81121231586162
C           0.58567684532610    4.07058492394180    2.36913018862103
S           1.87043488671921    5.16488207561184    1.95819964267430
C           0.78904437501367    6.41768576278326    1.56280414159826
C          -0.52848822248995    6.04296523369104    1.72236098989722
C          -0.65347220380461    4.68851276466325    2.18302296924270
C          -1.96505681830141    4.16025442576502    2.35847423097094
C          -2.21652214367577    2.83196847013502    2.75802072945409
N          -2.49205199974210    1.75993733255882    3.06774420022323
C          -3.05953709199860    4.96046982683264    2.10537071631657
C          -2.91413980992703    6.28911816328730    1.67174888175939
C          -1.67747175543462    6.82850000794795    1.47553018283270
H          -4.48925637013413    3.24621311675935   -0.83833417526485
H           0.43214766123895    2.61007928735031   -0.15478601607075
H           0.51030795446312    0.32032199702790    0.74465532093541
H          -1.50709369967913   -1.03901417457660    0.90501682371645
H          -6.76185797107924   -5.65148304999458    1.53166236494782
H          -6.43946676029193   -7.97277951350179    2.54436650440546
H          -4.65151955465880   -9.34540401238677    3.79638856412964
H          -2.23689538248586  -10.02743260141993    4.91933538853393
H           0.06203392956496   -9.67168449019044    6.02634742398473
H           2.09144175166037   -7.85209170090868    6.00839865877008
H          -0.14032268008002   -5.05643251250758    5.38614040438403
H           4.58399514902518   -4.05896599852579    4.30117556777455
H           3.92048257390531   -6.33403099662226    4.96701526398608
H          -0.17353347271265   -2.83532936214064    2.49428468994925
H          -1.06005348953628   -1.47503655575867    3.19141820929982
H          -1.58041941017168   -4.41566912725844    3.80367764484361
H          -2.56104335777156   -3.34918947782601    2.81441336298768
H          -2.43846990331364   -3.05217582189279    4.53949407517232
H          -0.91904545118315   -2.78381112858046    6.20200272906057
H          -0.92087352520949   -1.09112480549869    5.69085677868497
H           1.38594734001807   -2.50530367364404    7.11760450389772
H           0.23895542359407   -1.39303434322337    7.86748413227686
H           1.36515713892983   -0.80622672029963    6.64296336344070
H           0.16831742909782    0.38341817007813    3.83145296612223
H           4.33780677847141    0.81713744380073    2.92831363489850
H           4.73400638654450   -1.53495181670645    3.51906883032579
H           2.92623688106347    2.69762840681372    2.63963820581891
H          -0.06008968521399    2.19521716200691    3.06460129610539
H           1.16465645713632    7.36334504671382    1.22746848244243
H          -4.05020207886245    4.54909694889820    2.23565327053539
H          -3.80145465024629    6.87300018902370    1.48298247186925
H          -1.55381201191914    7.84112353375649    1.12539334657202
