74
 SCF done       -138.636946276699          0.000779129536
C           2.34009648469340   -4.52702476441337    2.18201869953434
S           3.16987704635811   -3.07875777126046    2.56904289929822
C           4.36336310525195   -3.35378480796590    1.32506563566022
C           4.09523586073278   -4.54027675550677    0.65070132401828
C           2.93195922721190   -5.20440761247286    1.15256078124510
C           2.45044642357536   -6.42449365329016    0.64077992195433
N           2.05323756086419   -7.41744901929447    0.22964082734535
C           4.84152597295908   -5.07215857582271   -0.40868256861248
N           5.43060885584251   -5.54155386950238   -1.27631023566892
C           5.40419128262191   -2.40769579161127    1.15439005958709
C           6.40383245449785   -2.50199261727159    0.23953798357101
C           7.43998052594212   -1.56304463935317    0.08092319100954
S           7.58797559599782   -0.11533227328724    1.04887692904629
C           9.05669081572028    0.38361544510725    0.24042467420314
C           9.37031051929284   -0.52322138974221   -0.75520328277181
C           8.47699711055257   -1.62193122825018   -0.84647843680462
C           8.82804539643934   -2.52288833083048   -1.88807281960911
C           9.91454557561515   -2.12108141893890   -2.58666576171021
C          10.58876118294033   -2.80352307174576   -3.71783943337528
S          10.57379006556761   -0.59574108127635   -2.00916068975593
C           9.62029455215728    1.62364740317524    0.66589530500770
C          10.94079798380102    1.99348701770324    0.58805310258794
O          11.37201514072001    3.26306200812941    0.92570351532758
C          10.42455367255275    4.07799228475744    1.46846078050350
C           9.07380016263278    3.65795478849583    1.64084208021451
C           8.29505912551497    4.60728017343392    2.21531063318641
S           9.20026960064936    6.03441625399355    2.55564594004975
C          10.64271118368805    5.33929336249421    1.91556475218442
O           8.64638472837949    2.43126120568720    1.23297449180481
C          11.97782715767890    1.10307278372868    0.20579429021512
C          13.26642365311572    1.47155970925039   -0.01481826576999
C          14.26809002827583    0.57300879161934   -0.43280441726891
S          13.92289993125211   -1.10580572030010   -0.77908033033828
C          15.56349560587000   -1.44416045132023   -1.28000584647879
C          16.32320811934350   -0.29869749163549   -1.15901413750380
C          15.60895095060693    0.83637969493850   -0.68876697125182
C          16.43292947030795    1.99202627581268   -0.61024159676054
C          17.70398700817550    1.76271976192436   -1.01120855172418
C          18.83722761141133    2.71943935047108   -1.06708961995664
S          17.97423478831826    0.09825021011531   -1.51923449983037
C          15.89377389447804   -2.74561763126074   -1.73882452412543
S          14.61308108568869   -3.84208205118993   -2.21978473481203
C          15.70945804961586   -5.09386123101121   -2.62565532156218
C          17.00823473877080   -4.71294456788302   -2.40784116597738
C          17.10708928954413   -3.37586640728886   -1.90359318811057
S          18.75278438853026   -2.93656953291013   -1.58547206449542
C          19.30030224941146   -4.51382237111378   -2.15220706531987
C          20.72644136727906   -4.86557151321182   -2.18515864918290
O          21.08976460049398   -5.95680244303663   -2.56317851022523
C          21.67087567734784   -3.78089036594755   -1.72121879863841
C          23.12796405432228   -4.20453476539811   -1.83336449372301
C          18.28122657554645   -5.32595153058818   -2.54345974417205
H           1.46154283496397   -4.81203697389267    2.72637204171849
H           5.38222077008017   -1.55315732927863    1.81860710569910
H           6.44109798259006   -3.34922551701835   -0.42960390674657
H           8.28723510483623   -3.42747752089976   -2.09915831952471
H          10.63912757048993   -2.14797679570337   -4.58642486363568
H          10.04796804411029   -3.70763782012833   -3.98504431462932
H          11.60989706716852   -3.06822946227083   -3.44143996381240
H           7.25404389284169    4.54947077476324    2.45400675525589
H          11.55726118841581    5.89393677018465    1.90490282305298
H          11.71106882559217    0.06344217792699    0.11753773523262
H          13.55790006980722    2.50516454017307    0.10333017422524
H          16.08277871739232    2.94909217261512   -0.26856657520197
H          19.65598610963204    2.37655186862942   -0.43498296124265
H          18.51662115932879    3.70166356867981   -0.72897775259488
H          19.21730178016065    2.80124908719481   -2.08499966653492
H          15.34169202869137   -6.03010421130328   -2.99292971386152
H          21.41838663347237   -3.53613387015769   -0.68553915773309
H          21.48069099324906   -2.88486778528923   -2.31835464449573
H          23.30722969957123   -5.09320808540271   -1.23371134949772
H          23.78398874467007   -3.40843900709940   -1.49119361058195
H          23.36998546037186   -4.44229359953106   -2.86609176516151
H          18.44200781463798   -6.32251275646140   -2.91238016201838
