82
 SCF done       -143.680300668533          0.000627289083
C           6.62328425115971   -3.26806203620684   -2.91886118952052
S           6.92221830635541   -1.74665952339032   -2.18577200491965
C           5.21615112355788   -1.37914093066355   -2.12499675732105
C           4.47504390182042   -2.42267616612964   -2.66446117258715
C           5.29108904450382   -3.50395101828172   -3.11738778270241
C           4.78215498808223   -4.67949113321585   -3.70120583620009
N           4.37129525131590   -5.63709956613689   -4.17750368427622
C           3.07576371032014   -2.41142127392363   -2.75146085798761
N           1.93026557994340   -2.39687331054520   -2.81996427298936
C           4.70399644964190   -0.17423135468955   -1.58748038483958
C           5.47807580449168    0.81216859952690   -1.06578681462659
C           4.94799066267743    2.00898210237971   -0.51432396579213
C           5.71329010670518    3.01975355345852    0.03300911122582
O           5.15078668209043    4.15107067822637    0.58898493756033
C           3.78983536666601    4.21917665413157    0.54945420455880
C           3.00211178119256    3.18323844425995   -0.02779867190669
C           1.67203579853784    3.44104907347380    0.02600924350000
S           1.36091851479791    4.95757812493499    0.78521753486357
C           3.04310203140154    5.24350355694969    1.03106012170234
O           3.56592354617814    2.06726354644538   -0.56352385442410
C           7.13375445941878    3.01610772675427    0.08086007414819
C           7.86358672792153    4.00039301631971    0.67013424988332
C           9.27427672023401    4.02819180044115    0.70562299087283
S          10.23706847250616    2.80620272806726   -0.08119413285228
C          11.72540151153371    3.57840621141040    0.40680585304247
C          11.46385761729537    4.71029906639374    1.17326534780919
C          10.09386636592076    4.96707263317000    1.32322159593195
C           9.56613821428872    6.12983973613203    2.10678187012565
C          10.64860445727341    7.17515244067928    2.36671907518328
C          11.04497721561165    8.05160869748063    1.18065999534232
O          11.92535707489620    8.86726935940726    1.29858635023190
C          10.29724530339952    7.86844559936822   -0.11245142264324
C          11.90522691354529    6.47090293898978    2.89433196471783
C          12.50465447791073    5.57717381680986    1.80993301176898
C          12.92652880740368    2.97268176404091   -0.03782451553293
C          14.17636064116377    3.50453817898778   -0.00408190371848
C          15.35194836786201    2.87874233735856   -0.47569040871381
S          16.82428234127306    3.83208236758401   -0.45448725327509
C          17.78623653396060    2.55525784605523   -1.15081044035156
C          16.98016650499446    1.45688391026841   -1.36540905925821
C          15.61744927864387    1.61272456426951   -0.99367492056547
C          14.88025436051268    0.42042624910741   -1.24340271163349
C          15.63033201270451   -0.57158573502211   -1.77704903412937
C          15.19703383832481   -1.93822352516974   -2.16276424661797
S          17.31143536692057   -0.11672708503918   -2.01334618959356
C          19.16446122588812    2.73373059385912   -1.41830960805400
S          20.11827387037260    1.46486573853561   -2.13414232432353
C          21.53747959095461    2.48059405627219   -2.10950356269401
C          21.25772644841928    3.71820307031733   -1.57116637159071
C          19.92716082532512    3.86050366267002   -1.18345630770241
C          22.75319414213225    2.01978652769944   -2.59427685099933
C          23.79990708495493    1.59224015016822   -3.03115105778119
C          25.03002471810159    1.14000272973795   -3.52768610317081
C          25.21719286688486   -0.08458690954249   -4.01719237812344
H           7.44096984136005   -3.91534884893374   -3.16855999612142
H           3.62855603955451   -0.06521161700742   -1.60394753420973
H           6.54894555951970    0.68585600721241   -1.05585440771673
H           0.86773634217542    2.83416713558842   -0.33306235621392
H           3.37979972658580    6.13876413025414    1.51012352810644
H           7.65377018567706    2.19269117571542   -0.38010582394356
H           7.34600968340080    4.81814604520464    1.14985730651786
H           9.20740549168240    5.75961975375050    3.07365749246973
H           8.70784372340688    6.57287005677787    1.59964943693538
H          10.29258064786625    7.86958582273533    3.13745156120009
H          10.74784584063227    8.49019672549367   -0.88203588462362
H           9.25910494645924    8.16717160338662    0.01979592488769
H          10.31575918564896    6.82634206204791   -0.42161361110636
H          11.64015979316791    5.87105926322277    3.76715912753717
H          12.64269487700507    7.21501310874439    3.19582555035367
H          13.28787413650149    4.95148609785375    2.24427123315114
H          12.96646630077397    6.21015567831358    1.04463539336888
H          12.79222399042026    2.00177642247922   -0.49114509354871
H          14.32609406508261    4.50427805360440    0.37187485226066
H          13.83512249448203    0.29536746049673   -1.02919237112065
H          15.75596665414974   -2.68732779248992   -1.60229541845222
H          15.38291388131254   -2.11181298815847   -3.22246060057012
H          14.13586726330199   -2.06718370548930   -1.96411258147365
H          22.00409508580717    4.48551468056232   -1.46861486077011
H          19.51519046321731    4.75192009415820   -0.74401205459477
H          25.84012066640535    1.85887386400563   -3.49151993882938
H          24.41575363109627   -0.80343617969805   -4.05636980216906
H          26.17531222337213   -0.39937839388538   -4.39242855054280
