69
 SCF done       -140.130965069805          0.001841127898
C          10.29419735680648   -2.09587856566728   -8.28223155776178
S          10.60021437148032   -0.42833025971980   -8.05507396858587
C          10.00469130650797   -0.49084743430690   -6.41973249588823
C           9.59177109190483   -1.77510199901832   -6.09518334953665
C           9.76128593823471   -2.69503158067561   -7.17248087398825
C           9.42189442817557   -4.06028308753907   -7.09902042813002
N           9.14691845812882   -5.17050176846942   -7.03764665323068
C           9.06619562794455   -2.11951209424967   -4.83971761596600
N           8.63957894201132   -2.38452259127237   -3.80888095109500
C           9.96794178764177    0.63914481323776   -5.55987405670454
C          10.38209755845651    1.87821894084948   -5.90803501976484
C          10.36359128148713    2.99923905233771   -5.03984992896605
S           9.79189805852810    2.92050068562444   -3.39843805731745
C          10.13626235634885    4.59946655824155   -3.13467960589060
C          10.68092805141342    5.18672810924759   -4.27711056077331
C          10.80234784062404    4.28120357236674   -5.35618305748237
C          11.30694406145267    4.62631881109748   -6.62176763342346
N          11.69570783638522    4.89132272164932   -7.66711978109174
C          11.11745850621558    6.52091282621952   -4.29668612775302
N          11.48826166033682    7.60642172136527   -4.25936674343290
C           9.98806440132934    5.26205591501082   -1.89567409374750
C           9.58867689183281    4.70141730633309   -0.72597562028504
C           9.67860400843651    5.36604626261864    0.53378888878393
C          10.64366893241065    6.30790161913263    0.82638579105087
O          10.64980297866394    7.02911257545207    1.99718620422380
C           9.69053809956137    6.66949532688879    2.90184533535721
C           8.75519344359847    5.62765576539204    2.63748813161141
C           7.90618603212486    5.40862040222116    3.67192024868228
S           8.23535123177344    6.47329288605291    4.98574105526240
C           9.53140363296550    7.21995405348429    4.13079984645203
O           8.73210726690691    4.96179670048046    1.44424064982833
C          11.75708924672233    6.54399252661420   -0.03119718473854
C          12.56218226695790    7.63376902260337    0.02074192986691
C          13.64794348588555    7.85251675410936   -0.86350862138242
S          14.61526415205258    9.28487757970514   -0.66538860916445
C          15.62497139024847    8.88299894316327   -2.02214822868478
C          15.21174146016070    7.68977186827649   -2.60152963421572
C          14.09653826991872    7.10049781735322   -1.95059832597148
C          13.56095498954136    5.89116726285318   -2.41262408918330
N          13.16291244475527    4.89782612729291   -2.83273000149827
C          15.85346196907487    7.11674479312740   -3.71304984094302
N          16.39927010351558    6.65572403584199   -4.60970683371182
C          16.72530100275272    9.67414429449665   -2.43672129313957
C          17.13839580589338   10.79501529245355   -1.80134884087494
C          18.25983691176524   11.57015281928946   -2.19241387667928
S          19.23557627541451   11.20803391231655   -3.58356728032662
C          20.29599004754473   12.55003983273635   -3.28069956475364
C          19.90309101949083   13.24717277178351   -2.14949841362209
C          18.74723079765555   12.69196980137303   -1.53401372900318
C          18.15342423895065   13.21195467825335   -0.37180029005291
N          17.65383709093537   13.62011385352214    0.57569384872258
C          20.53573049796781   14.38398208153660   -1.61591208649677
N          21.01720625184394   15.31067643732806   -1.14191627662886
C          21.39411104652295   12.76931525191636   -4.18151544963086
C          22.31524434561875   13.72521984580254   -4.07121820860214
H          10.51999364793893   -2.56262372068268   -9.22119679944246
H           9.58126846472217    0.45789801204310   -4.56388629450493
H          10.76969214079280    2.06145169131128   -6.90334442935285
H          10.25653949604451    6.31041303337615   -1.91908721191450
H           9.14155368890900    3.71646466258705   -0.71291551757634
H           7.11561926082001    4.69059354839212    3.73370894562807
H          10.09693304842217    8.01155959389501    4.57583607552613
H          11.96750917099217    5.76940493264771   -0.75051982480393
H          12.36376990279907    8.41263523236972    0.74342923590222
H          17.25615317194822    9.31921550991772   -3.31223046666827
H          16.60997031718554   11.14452298277677   -0.92211806539319
H          21.43826844792415   12.06850311177710   -5.00561776919902
H          22.31365767325244   14.44105764586015   -3.26837894669959
H          23.10556301678893   13.81264892086165   -4.79567600339742
