87
 SCF done       -152.271586416826          0.000520853471
C           3.35071257308195    4.93624699309690    7.84843256749105
S           2.37831875349910    4.54767688608066    6.49033852099884
C           3.77495681968217    4.37320491149634    5.45498257287734
C           4.94233119045845    4.61729691139565    6.17558660724356
C           4.68324737139458    4.93841463436758    7.54641733630011
C           5.70012131166202    5.22437033893218    8.47616491561371
N           6.52969537395751    5.45643888677697    9.23223222686441
C           6.25036689168281    4.57628717424224    5.68511210998781
N           7.34665905973007    4.55825478784649    5.33669477075077
C           3.57929740694397    4.02706800531646    4.09794912617358
C           4.58467721769359    3.85495340161644    3.19501445969534
C           4.37643930599987    3.52045242570639    1.83588351568835
C           5.39870814305313    3.34699451634615    0.91624028109783
O           5.15309906256788    3.05973879187998   -0.40689725856131
C           3.84326876493635    2.94758243126804   -0.76148570843504
C           2.79094554568584    3.11080244146340    0.18447725129629
C           1.56140031877631    2.95660074940052   -0.36615433611351
S           1.67121774417644    2.60898239836854   -2.05244743786777
C           3.39287680883426    2.67318164147942   -2.01084556875327
O           3.03743561353639    3.39300805805513    1.49125600722959
C           6.77633487569379    3.45350669861341    1.24148147179332
C           7.77173196668008    3.32401837948275    0.31875108645331
C           9.15807499814291    3.44375872896255    0.54577174725274
S          10.21941542716382    3.02706920625365   -0.77868014752299
C          11.63494937704962    3.38605535171220    0.16436297720932
C          11.27686127069065    3.80482704226716    1.44552811018775
C           9.89724448407770    3.85651407283919    1.65682916248836
C           9.30433991796475    4.35155623163412    2.93362050075820
C          10.32987458485978    5.07660853284940    3.80578764429010
C          10.59890326671676    6.47731296121691    3.27513495376889
O          10.15826259332852    6.87298612981242    2.22620336063784
C          11.45073742531959    7.34485957489474    4.16985019852740
C          11.61936779655037    4.25329099637429    3.87393357450989
C          12.27463121166873    4.18527771738378    2.49638581067249
C          12.93773719467119    3.27472330310913   -0.36456082471393
C          13.20899389813804    2.87901596541564   -1.63972368113265
C          14.47399420998310    2.77955867417245   -2.24498154623928
S          14.53503107745164    2.35718681622354   -3.94056721263805
C          16.28365817602898    2.49159897483778   -4.03675854793582
C          16.76427249707757    2.81631744906184   -2.77165404253142
C          15.77491620325338    2.97259095214821   -1.76754310098438
C          16.35264539259587    3.25040445406675   -0.49781880445304
C          17.70516253826883    3.28309567080428   -0.52408832161785
C          18.63987015835616    3.53875743468424    0.60123875133629
S          18.36256539008821    2.97819058407271   -2.12052606341995
C          16.86978920910540    2.25023964426834   -5.28709429005110
C          18.12932647228692    2.53159587182659   -5.75608958908784
C          18.58678427131435    2.18515967763407   -7.05509071561188
C          19.84880565998063    2.59964927076548   -7.34182558392116
C          20.46878335145468    3.31303838613090   -6.28813255517781
S          19.37945823975799    3.42880725594686   -4.91726904304385
C          21.72525390616650    3.87107839856926   -6.26280167932632
C          22.69565515050662    3.86694345692122   -7.30216788661406
C          23.84849135673063    4.50141011891187   -6.99229536967978
C          23.87956133962747    5.06407419006162   -5.67299170674629
S          22.34247662601823    4.72339708157028   -4.86101008703776
C          24.87828586293434    5.74571924261144   -5.09459918355294
H           2.89950960774895    5.14352847371044    8.79852357191353
H           2.55504575058764    3.89630244740596    3.78042637454003
H           5.60024755272701    3.98806232295442    3.52242446015301
H           0.60846754851921    3.02603159827447    0.11459779262078
H           3.96752879148110    2.50766947669407   -2.89776396639841
H           7.01740882534012    3.63012424481775    2.27062760131454
H           7.48861918512560    3.09487557291987   -0.70038043350804
H           8.88879458724694    3.51576967179695    3.50311091016309
H           8.49333453365164    5.04676492026577    2.70826106393588
H           9.90890585374065    5.17919630911337    4.81057620619567
H          11.40770283569013    8.37662240262405    3.83046374210013
H          12.48519878610437    7.00957906272521    4.12869457095919
H          11.11271282177691    7.27912410604548    5.20042863155965
H          11.36561192347971    3.24433766920300    4.20578735250187
H          12.31566219706824    4.67810115601672    4.59805443281224
H          13.09219422305977    3.45968629401412    2.51354928624391
H          12.70256399482857    5.16004310554074    2.23753482421839
H          13.74331368489356    3.54952392622316    0.29701454191521
H          12.36995140042503    2.63071435132050   -2.27873188935353
H          15.79063522359970    3.40599819809237    0.40404269755781
H          19.22526114702695    4.43811595291315    0.41080337241103
H          19.33673068998559    2.70893477831786    0.71384365191547
H          18.08811583325723    3.66672698761938    1.52940137023387
H          16.20060036198005    1.80425568863763   -6.01387361434217
H          17.96048042281278    1.63176455952595   -7.73287448747811
H          20.34951463313811    2.41323809027695   -8.27482247038065
H          22.50054682396949    3.39044583872098   -8.24670318720340
H          24.69395824152671    4.59918516050134   -7.64996617862258
H          25.79624888103730    5.92954497467188   -5.62439127625865
H          24.79768098306332    6.12579177580121   -4.09292027815556
