98
 SCF done       -187.194240316375          0.000863299278
C           3.74550934118431   15.24959383891154   -1.91937727926124
S           3.70342698083448   14.19239446454167   -3.26648227727751
C           4.00260115812703   12.80920959256089   -2.24737027054505
C           4.10118275927602   13.18786033887055   -0.92623242542001
C           3.96056432128628   14.58751463687783   -0.74872440994030
C           4.00809737299241   15.26321187994464    0.58987913377550
C           4.53769358531369   14.33097846960281    1.68395934073971
C           6.06056439990753   14.27997853704798    1.65811701712262
F           6.60162390517372   14.06053355533771    0.45347357115352
F           6.58702125125348   15.44061483461564    2.09067293115223
F           6.55212582661242   13.32538435455453    2.46897546172249
C           3.91436133561538   12.93978355831233    1.55253363836526
C           4.29790503205920   12.26525162023502    0.23625727831023
C           4.12000589105796   11.52916242741547   -2.88313852045784
C           4.72339342471169   10.45401187807248   -2.35122233144813
N           4.85084218151401    9.25099157671410   -3.00611766475044
C           5.51190500912029    8.16911137387956   -2.51242479726418
S           6.28376688417601    7.06512074098892   -3.60801346313056
C           6.94222869260125    6.19707656517110   -2.25479894728097
N           7.71397672241886    5.07059820083255   -2.52815903072032
O           8.16404616342422    4.44306969709159   -1.58578922283338
O           7.88120786382478    4.79258596545126   -3.70722511995113
C           6.58872397161577    6.73665571228547   -1.04609874661541
C           5.74825682717290    7.85569397957392   -1.17079416815112
C           5.15295020560931    8.55006570686674   -0.04956558157284
C           5.82249980375650    8.83274622206286    1.08839433678026
C           5.26571123859005    9.50321806692249    2.20386052174945
C           6.02631699910673   10.00155045262122    3.22402881501031
C           5.59314049119755   10.64106780667792    4.41670668399478
C           6.59914744350198   11.01210677577398    5.25246232819283
C           7.89045831202494   10.70404465087671    4.76457366685594
S           7.78108300674433    9.93418339063575    3.19638034297999
C           9.11685774320680   10.90182784333940    5.35755993922000
C           9.43803668495427   11.41759031154659    6.63425907063297
C          10.76696049112847   11.40717176507994    6.92808805807345
C          11.58674308375982   10.89368520855983    5.89122831600895
S          10.57777231021134   10.43232997484925    4.51304261228707
C          12.93980323279819   10.72920645254297    5.85876671714561
N          13.54851589805660   10.24237243130174    4.74593376587203
C          14.85165870162245    9.95940660743453    4.54137359294873
S          16.02066142246470   10.04010445541464    5.81756023264684
C          17.24028838110458    9.50109104396635    4.70087746952890
N          18.53402649465693    9.37209321486839    5.19323201884573
O          19.40608396583607    8.99617094527890    4.42703184808237
O          18.70078035984853    9.64901651758616    6.37416219279888
C          16.76516735948249    9.28056503290921    3.43311037517772
C          15.39126126284534    9.54418631935454    3.30886155224333
C          14.60563221275686    9.47970614123443    2.10522124539581
C          15.04338779894278    9.00194254006504    0.92242221597664
C          14.35237326140909    8.99158205588168   -0.32667372723748
S          15.28992241404719    8.50260496907672   -1.70920924025566
C          13.97117613247218    8.78951514129158   -2.79498456283126
C          12.86579616183082    9.25084511767099   -2.10858224441108
C          13.06902748918063    9.34469433888233   -0.71515703526929
C          11.98660739674887    9.78208254174135    0.22976324814945
C          10.62185671789876    9.93060169361665   -0.45344607692670
C           9.91314245996610    8.58409568172948   -0.54505016019524
F          10.67856777673914    7.56936296911959   -0.95042773739385
F           9.40891086290527    8.21588103552538    0.64680001640072
F           8.85960211711192    8.62613523600996   -1.38712912029181
C          10.77653150834723   10.57712953421875   -1.83038726913423
C          11.59029543761069    9.68352002187197   -2.76229336437752
C          14.19708865627616    8.53766074873452   -4.19438697722787
C          13.27989692768804    8.35285456062845   -5.14119209947405
H           3.60736173304660   16.30222445884015   -2.06554404007101
H           2.99677067194879   15.57622571950292    0.86554215568577
H           4.62224039009198   16.16526895215279    0.53131599646797
H           4.29131351191218   14.74770981788480    2.66739300842233
H           2.83028636076397   13.05867113684927    1.60226427449142
H           4.23061444826192   12.31176528273123    2.38712778427205
H           3.68717226688333   11.37063309805037    0.09963645251109
H           5.34248029879583   11.94405648415075    0.28631067951215
H           3.72244668500104   11.47170917175542   -3.88834526689940
H           5.19032866180531   10.47882264354258   -1.38276982719377
H           4.62092257547004    9.23835340132348   -3.99143141934261
H           6.90243395297706    6.31623959844267   -0.10806900928543
H           4.11957777540802    8.85322027546900   -0.16152686066492
H           6.87252747114695    8.57904989985225    1.15438986210093
H           4.19287485523041    9.63507296239056    2.24839785752765
H           4.54648910229263   10.78286039647490    4.62464762148508
H           6.45420936255393   11.49438686435033    6.20277330980395
H           8.67323605806324   11.76759925575186    7.30403419969785
H          11.19014693110631   11.74747758153705    7.85601425463670
H          13.56652801170292   10.97974401743057    6.70001614971375
H          12.92517303690524   10.04784790114590    3.96858192105869
H          17.40899614470516    8.95526879311089    2.63730185010535
H          13.60935572852031    9.88533560494468    2.17323553397148
H          16.04759450917919    8.60460338405317    0.86624356760290
H          12.25357978562867   10.75380923668928    0.65628056882031
H          11.90157870064147    9.06339417799978    1.05015023197622
H           9.97113216811363   10.54837472065840    0.17601639675263
H          11.28780771807438   11.53188999292411   -1.69587976333355
H           9.79615270234773   10.77511518361266   -2.26660556571707
H          11.82229136788883   10.22778766623479   -3.68060257413018
H          11.00144033176038    8.80587378900918   -3.04258372798132
H          15.24485552847283    8.46746620240650   -4.46076699337966
H          12.22396220805996    8.34897089975433   -4.94648937487416
H          13.57639781899918    8.16276810647253   -6.15806493753384
