94
 SCF done       -175.035009163411          0.000469074084
C           5.52018817569557   -3.32610656648372    0.08617336435768
S           6.61686729400371   -2.29619577979375   -0.72785777207354
C           6.13291771537888   -0.93168858125393    0.25088295709659
C           5.17442805652583   -1.31036368469411    1.17344259269345
C           4.82793443568961   -2.67789810881717    1.06655156482578
C           3.82678782071185   -3.35364032076776    1.95553804379758
C           2.96674547078937   -2.33873264294152    2.71354470362103
C           1.85803005613412   -1.80397705952142    1.81451540897220
F           2.26076114027427   -1.37686156743233    0.61219201434722
F           0.93527792153687   -2.75543184767862    1.57660619324064
F           1.19795636514895   -0.77794278175147    2.37868354042128
C           3.84049404038896   -1.22109537620914    3.28795444195088
C           4.54569106297582   -0.41688392637500    2.19599177616813
C           6.76510562506078    0.31326522466329   -0.01864724829078
C           6.39628832824095    1.53858430929429    0.42589318200722
C           7.09165194400989    2.73121268493461    0.12563960127290
S           8.55508690502332    2.80572418976462   -0.84071781822658
C           8.71683708137022    4.54333789235436   -0.67869251883447
C           7.65901004729996    5.02936453027507    0.09613345962924
C           6.77111210336584    4.01173302245870    0.53167628910034
S           5.50187011820347    4.70693412220487    1.48636445013514
C           6.26677163770953    6.27188515994429    1.21541302235975
N           7.32750937754944    6.28085565244980    0.50875653758937
C           9.78193306560757    5.24343671038731   -1.25599023446498
C           9.93230974161103    6.60004609864450   -1.09749911617398
C          10.97683675252288    7.36041913734094   -1.61497990396325
C          11.09299369909015    8.71874529983811   -1.38504546267189
C          12.10660636017230    9.59565761167006   -1.82145086461740
C          11.95209698573384   10.88803872161928   -1.39933775834438
C          10.80317485253093   11.09253252929434   -0.61356546567887
S           9.91783953998579    9.59789911074061   -0.42566180329699
C          10.34751925935995   12.25735717949954   -0.01349039676524
C          10.91616604382521   13.54368813221316   -0.00930925917866
C          10.20342076968268   14.45658290470590    0.71525933427205
C           9.02544500978487   13.94380616147426    1.30678154085166
S           8.86884132077045   12.24425672146622    0.92035870994903
C           8.17221394895476   14.65389073632572    2.12351406863537
C           6.95956104592819   14.25714191818545    2.69573792020960
S           6.32288140979437   15.25114081841142    4.01165756019453
C           4.90360830710945   14.26198535355557    4.23963701191672
C           4.92191028466995   13.22809670165349    3.30707443259942
C           6.06271766245873   13.22026623715505    2.45929018127767
S           5.89930530849302   11.93179353662545    1.31071418175892
C           4.37336666506448   11.52359613339097    2.08354718951616
N           4.01029373847870   12.24955980642783    3.06645133185046
C           3.92335149329815   14.48758881417376    5.22098178849310
C           3.96678509826280   15.47998556786327    6.14783854694184
C           2.98271083440534   15.68495285461352    7.14337706822063
S           1.55867044550423   14.69176363024140    7.23940770623580
C           0.97492046182056   15.55735790641713    8.63010230245087
C           1.84319717965950   16.57535566698360    8.97968838851967
C           2.97484347559548   16.64186394722158    8.14809912073038
C           4.06468930843821   17.65914659432876    8.31231126521994
C           3.96956526166929   18.39036893244490    9.65458511833160
C           4.59445202972656   17.54519543846041   10.75894154500938
F           4.19046546494109   16.27016381355032   10.79165175332342
F           5.93393648320195   17.50350445300463   10.62862528129596
F           4.35542400293560   18.04870060271713   11.98266006017953
C           2.51978156741249   18.76900635941580    9.96364731104306
C           1.62757198697856   17.53742165343965   10.10590921496821
C          -0.27611067644309   15.12306921415348    9.18872555291820
C          -0.77577804914065   15.40633070995110   10.39082803274790
H           5.44197486200633   -4.35588547297611   -0.20063016737379
H           4.35790135937690   -3.97009618798058    2.68683087171892
H           3.19410316576785   -4.02101305013581    1.36512903012189
H           2.44142664353008   -2.84400162020937    3.53221665701786
H           4.58552676950487   -1.68850398200225    3.93480105216058
H           3.23392022874993   -0.55072303960132    3.89918914627571
H           5.31009572322733    0.21259191084520    2.65772840946307
H           3.82623771003403    0.24509822332971    1.70402325478109
H           7.62483563910482    0.25754994292410   -0.67615364741778
H           5.51587763048824    1.67848166348319    1.03375030030590
H           5.83088799101792    7.15276017202413    1.64327925263941
H          10.50259596562852    4.67555037204150   -1.82860447339069
H           9.18359002349149    7.11725328912649   -0.51125003769597
H          11.74275931110851    6.88181917818702   -2.21121449577750
H          12.92408002674849    9.25136360224681   -2.43063799543435
H          12.63183861766085   11.68747599503117   -1.63501379042775
H          11.83013932323449   13.76546110555890   -0.53064701790740
H          10.48521316047410   15.48767099390521    0.83761544363129
H           8.50204821942798   15.64951707580058    2.39392450666651
H           3.80016864466761   10.69602082086060    1.71380611908948
H           3.09747154314316   13.78815804780390    5.21219590936763
H           4.80747040435979   16.16160901646235    6.14063486469998
H           3.99000995423121   18.39741090419415    7.50783641387597
H           5.04230142750744   17.17796473702791    8.22416409923610
H           4.58201222299338   19.29867448746717    9.61889328888887
H           2.15933960473954   19.38845016167084    9.14011857043723
H           2.47589667696193   19.36162564166086   10.87898453007150
H           0.58122587463069   17.85033689691974   10.12481328474116
H           1.83886117893971   17.03589629582896   11.05482259825624
H          -0.83715716543371   14.46669037341751    8.53430403656622
H          -0.26066815668947   16.00376882736226   11.11896450665892
H          -1.72973544359497   15.00873135416142   10.69105443964213
