94
 SCF done       -164.551653302903          0.000485131342
C           0.25043425730834   -0.80807277885602    3.41061246684576
S          -0.11107059908138   -2.29909178053248    2.67835802811116
C          -1.66578291118393   -1.74696042004836    2.11193438116489
C          -1.89082911219302   -0.42875177706808    2.53901910767420
C          -0.77478231525078    0.10239699773910    3.27012997862459
C          -0.82953157614122    1.42435877087770    3.77089270568655
C          -1.93708321375081    2.17996696394691    3.54586087019270
S          -2.02116808326544    3.85058926108566    4.15992127843485
C          -0.88085449196372    4.64619754408745    2.96658296980975
C          -1.42700625296327    4.61465091978729    1.55353046173536
C          -3.06375145511782    1.65293911376564    2.84973624582331
S          -4.41330765406969    2.75625459123584    2.65818569905661
C          -5.55102253501582    1.88027202787894    1.52656548960412
C          -5.02875418508527    1.81966835135460    0.10335787319121
C          -3.04090854952310    0.36378912946491    2.37899348924851
C          -2.42510648096050   -2.64127124249365    1.32263018007717
C          -3.50856535244448   -2.35044542197625    0.55720192042994
C          -4.22294203435846   -3.31017921152832   -0.19856864674387
O          -3.88206116594277   -4.62940924538247   -0.21832167687248
C          -5.33140640067264   -3.14069574682054   -1.00650235836225
C          -6.28697241039734   -2.16099101282538   -1.50233573980906
O          -6.39296143605741   -0.97333081039559   -1.30481319708092
N          -7.13779562488856   -2.91220313416396   -2.31235285799912
C          -6.83793565249407   -4.27098587739304   -2.38849443447893
O          -7.45943362069280   -5.07708446941086   -3.03817744955234
C          -5.66373679027973   -4.41767633320129   -1.53356979261541
C          -4.74416577254338   -5.31309833938569   -1.02325501698135
C          -4.57788450040824   -6.71853671750751   -1.17794807211393
C          -5.37403907073717   -7.45024224032088   -1.98655092956652
C          -5.30266159189766   -8.86795045799308   -2.20793774461614
C          -4.89141144479199   -9.82767985643517   -1.36283770816837
C          -4.46538420335263   -9.62006706354982    0.04923921236140
C          -4.93605368804073  -11.27374368929634   -1.80164062127237
N          -6.18964792277946  -11.87732400585158   -1.40985260737954
C          -6.33386645064995  -12.72559724563917   -0.38598076400949
C          -7.54822012359381  -13.18304290699165    0.05146197044494
C          -7.78170707058344  -14.11656231657221    1.07349615984033
C          -6.89194882410789  -14.74748344958321    1.91453028944600
C          -7.22954744851272  -15.71207897947774    2.89321706933782
C          -6.17152636306482  -16.20080968986903    3.60500407945023
C          -4.93434228327636  -15.63945389198432    3.23392570077206
S          -5.15571843165687  -14.47848267694186    1.94967540261857
C          -3.65916679000992  -15.87024545217248    3.72319254907301
C          -3.20201673874293  -16.76264766659129    4.70980119735112
C          -1.85347059859332  -16.70416739745870    4.91736703561046
C          -1.17576385972133  -15.75469372451306    4.11101934331707
S          -2.32435112499874  -14.94804079770704    3.06772997611935
C           0.17132350586939  -15.48332726983149    4.14606235923990
C           0.87313972095502  -14.51896407054488    3.39821378531716
S           2.59377482332545  -14.28069425398381    3.69208831241511
C           2.75244058448163  -12.99289421032687    2.55520420242880
C           1.54259601671902  -12.74317159402824    1.95665231049908
C           0.49896926010106  -13.60823188832670    2.42271881755769
O          -0.66084067942512  -13.32799357368835    1.79127849803479
C          -0.38892323366729  -12.29146809160145    0.95793216928035
N          -1.44364452362823  -11.78189732597863    0.19687019615872
O          -1.23038262926035  -10.75872573757231   -0.44450442876498
O          -2.51823151109306  -12.36518032741500    0.20864327075300
C           0.92458542126480  -11.88780670800424    1.00607947156725
H           1.18891669289041   -0.66561241694203    3.90867116285924
H           0.00356807825696    1.81958389929481    4.33165278035451
H           0.08284669114302    4.14202065788559    3.03858505321985
H          -0.78227981937709    5.66797298662758    3.33008837571689
H          -1.49788132237848    3.59015097343037    1.19252219470973
H          -0.76925171767360    5.17129318313978    0.88852559373233
H          -2.41821372249891    5.06064945848448    1.52368624177909
H          -6.46699568207079    2.46834396012473    1.57882682826283
H          -5.75558751414516    0.89350367081720    1.93974795839170
H          -5.01396267817383    2.81401411253521   -0.33642101577590
H          -5.66894200171293    1.17453010906905   -0.49467592890711
H          -4.01650173715592    1.42065616083039    0.07229804042249
H          -3.90730249248635   -0.06150359631158    1.90855839772981
H          -2.06850547902119   -3.66407572551430    1.31075909024257
H          -3.88818086646846   -1.34876695039739    0.44796385689794
H          -7.91658876623694   -2.50229352537144   -2.80742601656811
H          -3.74921118049897   -7.15366772079741   -0.64251503710187
H          -6.12841677420792   -6.92950302822374   -2.56339664287124
H          -5.66951282910031   -9.17867694712563   -3.17995504989630
H          -4.91322837666005   -8.72671593479241    0.47741614743131
H          -3.37986194702947   -9.52013364643324    0.08539023755823
H          -4.73462880085594  -10.48586052317520    0.65222776769327
H          -4.12545592594497  -11.82847658686071   -1.32461537582868
H          -4.83612180748249  -11.34586423538056   -2.88932334577010
H          -7.02377623816381  -11.47736694873671   -1.81855564297886
H          -5.40740853373794  -13.06660656590466    0.05075610193874
H          -8.42992576496730  -12.80566741134107   -0.45242806841924
H          -8.81889562073297  -14.38865986756743    1.22956967269092
H          -8.24973872571595  -16.02234184056515    3.04113404043741
H          -6.25049285089666  -16.93911106782067    4.38301050060515
H          -3.86797990389583  -17.42344248209107    5.23631239077764
H          -1.32202966015222  -17.30997232762753    5.63015031404792
H           0.76684561313869  -16.05493403861973    4.84507234112031
H           3.69953195825202  -12.51914707891635    2.40958051573570
H           1.36194289840854  -11.09678949734535    0.43355404167385
