64
 SCF done       -146.592229538295          0.000548042526
C          -3.81738187356634  -12.24727878361236   -0.03795431660790
S          -4.22040024844635  -10.61474512443175   -0.45049034252987
C          -2.65066504445600   -9.96908533900473   -0.01333333681196
C          -1.88932180322705  -11.02362380573366    0.42885159958849
C          -2.53857483865097  -12.28068913230075    0.41275340812115
O          -1.65047129050075  -13.20820625509845    0.87735974651458
C          -0.51606664822156  -12.54154560182126    1.16083059165165
S           0.82172793471494  -13.22424751924726    1.75903673675929
O          -0.62027080163760  -11.22337436940599    0.89921594781333
C          -2.29054536747906   -8.59998315905614   -0.17217970116034
C          -1.05185438701399   -8.18196043183351    0.17369251466014
C          -0.53093941209718   -6.85921761334789    0.04038096885968
C           0.81383827062452   -6.59624828046652    0.13780872521814
O           1.32179487136052   -5.31982112733129    0.23488736079716
C           0.39531811717272   -4.32254788018977    0.12459723289957
C          -0.99073117720348   -4.59557395298584   -0.07062112344725
C          -1.73601925919808   -3.46882246173546   -0.18332617551757
S          -0.75820943204758   -2.05475144911202   -0.05032536183621
C           0.67067991676435   -2.99559037639888    0.15874580876148
O          -1.48114333873942   -5.86887433318863   -0.11241506765760
C           1.81800481899933   -7.61987801663744    0.17877961084559
C           1.69416682901874   -8.79896811235819   -0.47352025740739
C           2.53984532582257   -9.92530405587553   -0.31078131954925
S           2.15833476215504  -11.41611073679091   -1.15971083114813
C           3.42340995709415  -12.33637488362076   -0.36177542595777
C           4.09723604278019  -11.49144824417666    0.48132442109992
C           3.60967537910065  -10.17050936817919    0.51029299090915
O           4.32555721599942   -9.43966422296741    1.40584441783186
C           5.27223824341691  -10.33951709208594    1.95731391575493
O           5.11220404827657  -11.62042629325025    1.37225240828589
C           3.53443527379719  -13.73294351836798   -0.59475894603923
S           2.16407758773784  -14.59317375214378   -1.21165808069024
C           3.01926328950302  -16.10367875673358   -1.15036306546530
C           4.31195576069553  -15.92710832230188   -0.68218167649153
C           4.60444937180191  -14.58592834245032   -0.37094174112971
S           6.16442118824822  -13.94473347537717    0.11757847477314
C           7.27991519000389  -15.28848054560594    0.36816575253805
O           8.41553576190301  -15.00753173677075    0.64190654646472
C           6.88624211836112  -16.74716804948489    0.27419968259879
O           7.64357062608818  -17.59506133091097    0.65283606022100
S           5.37935289981009  -17.30458143851672   -0.47730302059063
C           2.33396926054646  -17.28017379472479   -1.54386076244325
S           3.03106016708784  -18.87894310358560   -1.70523468405078
C           1.52865792197915  -19.63505700822072   -2.20821278038191
C           0.56088068044664  -18.66357492886040   -2.23209131565319
C           1.00389320014712  -17.37741895070908   -1.87335399209700
O          -0.05783211357783  -16.52921638367410   -1.93621009650663
C          -1.11727250393699  -17.27928020327012   -2.31464635873489
S          -2.60690495096379  -16.69462660860740   -2.51012563099362
O          -0.77358796492399  -18.57242031067607   -2.50702129370020
C           1.46286955093247  -21.03384615695372   -2.51678434628780
C           0.35126237133462  -21.64384606243851   -2.92457947187335
H          -4.52645253361177  -13.03737311383759   -0.16296283904353
H          -3.01519308442054   -7.93374127858071   -0.61242389186995
H          -0.37453574911517   -8.89812631470473    0.61244040060388
H          -2.79203133314014   -3.38983149519131   -0.33467200522280
H           1.62130291152506   -2.52360885664751    0.29276400686919
H           2.71361025528989   -7.39686998470042    0.74044826352280
H           0.87675794112315   -8.94786766272362   -1.16485590360703
H           6.28913928523147   -9.97013711796617    1.75612352065324
H           5.11595429547725  -10.41496445695332    3.04370254951086
H           2.39127962612164  -21.57419862582590   -2.39989255073064
H          -0.57461539520786  -21.10756258908450   -3.04367128526945
H           0.34113228291410  -22.69488770108286   -3.14976466572545
