93
 SCF done       -170.404727184847          0.000741363421
C           0.95617568709834   12.42223563350767   -8.97202039549539
S           1.22235824531935   12.65587363720556   -7.29907368906303
C           2.36502195694698   11.34798472951189   -7.27942511862216
C           2.51820321839626   10.78239634081858   -8.53204409465911
C           1.70590658871594   11.40966955184681   -9.50102856624063
C           1.72267909499143   11.03414806096101  -10.94918740506272
C           2.39014727449078    9.66990283231063  -11.16773963785243
C           1.52684354795538    8.58200927337055  -10.77592261233873
N           0.87868417957573    7.69331584471931  -10.46431829428625
C           3.70640897603194    9.56622094101189  -10.36393331488362
C           4.60180670227613   10.62996022692123  -10.75205665077450
N           5.32205166882622   11.46511673140161  -11.05243760521306
C           3.42495984334285    9.63776082667309   -8.85476603963342
C           3.03863285012332   11.01954153120089   -6.07080298721218
O           3.79607593564303    9.89341131518985   -5.99248383943097
C           3.13314410112072   11.69035391401360   -4.87117252105442
C           2.69828145934377   12.87887073451942   -4.14093501420566
O           1.95926897754937   13.77673699873355   -4.45099571493405
N           3.35581039003846   12.76588405209762   -2.91428936031549
C           4.16505669428522   11.64187741142128   -2.76780802948220
O           4.81526489605801   11.37710960250777   -1.78997559732464
C           4.01509455040641   10.94057264232715   -4.04598371196067
C           4.40192047569729    9.83505227561810   -4.76753018054122
C           5.28792663014007    8.75460820757876   -4.48403374719959
C           5.33161533137207    7.64871596311780   -5.25509379764211
C           6.30637071417026    6.60658850590700   -5.14161680277870
C           6.24073228766913    5.43884863379209   -5.80274616943166
C           5.05300581824574    5.02813140512209   -6.62279605242463
C           7.44327025735674    4.53526187741659   -5.91354165292273
N           7.91796666757321    4.62265287281794   -7.28781618049249
C           8.52424887976428    5.74956250795257   -7.73025850620348
C           8.32128032552278    6.28465350818270   -8.96320566249492
C           8.97100866810487    7.43464224075825   -9.44542656475897
C           8.55026637454550    8.14395164436330  -10.53983134488165
C           9.13495399001836    9.30141877482524  -11.10528978338528
C           8.44046723072208    9.82918792062610  -12.15105848489545
C           7.25190039123772    9.13101868738964  -12.46154420420938
S           7.06865047273001    7.75037998643754  -11.41494472625053
C           6.28104937713393    9.47524910299530  -13.38430450357904
C           6.27080967398125   10.56955462826908  -14.27075805757770
C           5.09711664037286   10.69581715723731  -14.95267720978168
C           4.13014732133779    9.70624372547023  -14.64838336536530
S           4.79461335596520    8.55891910018343  -13.52998366547566
C           2.80207315326678    9.78972203903229  -15.05405095004592
C           1.69566678435511    9.02277830573490  -14.71912103712550
C           1.60878802821954    7.71979504789413  -14.23677638517787
C           0.41441313263986    7.12167385998074  -13.69947115140218
C          -0.69328046817293    7.79325646809340  -13.23533580452213
C          -1.86657044820543    7.16610995261351  -12.77654514091372
N          -2.86028080598982    6.70768504394577  -12.42805285155515
C          -0.74522061429958    9.18877528886299  -13.08256338000556
N          -0.80711551363431   10.31644758009005  -12.86240107246728
C           0.63203916437700    5.68134743935918  -13.61361043270576
C           1.96173584094618    5.41049816987212  -14.01773291316487
C           2.60713014142749    6.67611182037734  -14.42871379770052
O           3.72881155595655    6.79369235330367  -14.90403015769377
C           2.48551789893405    4.14302682146732  -14.02795080675674
C           1.65515123243248    3.09128005221351  -13.61978791231902
C           0.33025569483249    3.37340478009701  -13.21861149312065
C          -0.19991608408729    4.65914549806615  -13.20519060063932
S          -0.52071582759028    1.92780438062069  -12.75991667925458
C           0.89913866779699    0.97875713388947  -13.10814965715179
C           1.95583091693180    1.70310045745287  -13.54522159987705
Br          0.85669284846184   -0.88132894675481  -12.85838340626458
H           0.25847231984329   13.04683262031091   -9.49367840049930
H           2.29098202665974   11.78725535824341  -11.50514545612991
H           0.70832330055862   11.02294476559180  -11.35714732995549
H           2.60022071302016    9.54205086000979  -12.23616027674591
H           4.20509624093415    8.61715429595243  -10.60076764930161
H           4.36420762142351    9.72897761777711   -8.30367086307748
H           2.94796115712133    8.70322073450829   -8.54090855530753
H           3.25068203887057   13.45396345948358   -2.18242112412512
H           5.91908383797053    8.87692313240287   -3.61661601804411
H           4.61775060710313    7.56663936149017   -6.06265882090125
H           7.16342778330220    6.81660674916341   -4.51526701466202
H           4.12862783670064    5.23435594385211   -6.08930817706677
H           5.08633037050108    3.96319735096083   -6.84336760430779
H           5.02008994581201    5.57398768935873   -7.56755399321866
H           7.19433926991255    3.49259406853761   -5.70216357066189
H           8.24288956285088    4.85605928976306   -5.24371184577523
H           7.28252532246586    4.20446319321361   -7.95732562749368
H           9.19528141446873    6.22078870905948   -7.02481060491115
H           7.57467585067372    5.83792754762446   -9.60847980314596
H           9.82740901294779    7.81113891496206   -8.90242818537703
H          10.05303536866642    9.70749821580028  -10.71865479366064
H           8.73411551744569   10.70966815818199  -12.69201184877018
H           7.10818140890645   11.23468324622143  -14.37594583578410
H           4.88632634680393   11.48276752997359  -15.65508488392623
H           2.58632264707614   10.67970072383317  -15.63456094975678
H           0.74474726493993    9.51471083262551  -14.89528589462933
H           3.50229449273745    3.96331393055119  -14.34069400852021
H          -1.21652043510222    4.82767172362310  -12.89154471715465
H           2.90761813421039    1.27829887138232  -13.80789805438752
