100
 SCF done       -169.182173449725          0.000879471913
C          -1.44462052404875    5.95872801904468    0.82413051870556
S          -0.63162021915185    4.98855653974790   -0.32703345306467
C           0.79329298719174    5.99056558802726   -0.23347716285356
C           0.59850952094623    7.03636908493635    0.64514759726936
C          -0.68157826482593    7.00189146879452    1.25408310428429
C          -1.18496539532347    8.02996080160380    2.22941181529797
N          -2.27141305577695    8.76443436357500    1.59522163592832
C          -0.01853775845304    8.90737950199407    2.71897180295888
C           0.86364521667924    9.33801917597330    1.55253253723467
C           1.58662600946794    8.13378680114074    0.92427886612569
N           2.68153065361464    7.61140845167748    1.74125550928733
C           1.91558141440921    5.61193208599708   -1.03514487575701
C           3.18171669493682    6.02977626408153   -0.85485613949870
N           4.19833820315773    5.62155523707687   -1.68337357412426
C           5.52516755746304    5.87504959932735   -1.59681894929569
S           6.46383392454048    5.62063717646309   -3.04306275389258
C           7.88874747689150    6.16611774956618   -2.21082615792271
N           9.09150946159305    6.15339407607936   -2.89894650014692
O          10.09726069600996    6.51637933378210   -2.29919274342522
O           9.06877595888166    5.78442128855603   -4.06572419136976
C           7.64095788475571    6.52078840542352   -0.91065369935052
C           6.29800883568831    6.35233720603409   -0.52137957261059
C           5.83748363387022    6.55605091023844    0.82281534635329
C           6.51100932056319    7.28348527146266    1.74936933385782
C           6.08442465934964    7.44976666318016    3.08168030824839
C           6.78271436420104    8.16743504516548    4.01587424598834
C           6.44020295124983    8.39690877177163    5.37244548793613
C           7.34875593026876    9.13423572432658    6.06855991878384
C           8.47016585380501    9.53164564656061    5.30799484808017
S           8.31994142033748    8.94679006081686    3.66075921715108
C           9.57527819257043   10.25114885360866    5.70737600051228
C           9.87745629886872   10.79707159706165    6.97579239964227
C          11.07558076913758   11.44075785278277    7.03892180088356
C          11.79906571003001   11.44319896525809    5.82103497711266
S          10.87209628556849   10.59182229352299    4.58055328277081
C          13.02090357188342   11.98969051028989    5.55443222621158
N          13.58972125947997   11.89344493358422    4.32969786014972
C          14.76566379435677   12.40743098915636    3.90807404475056
S          15.81949006065528   13.29036161887288    4.96387343940086
C          16.93283533815363   13.49403628733553    3.64336095647910
N          18.09915202897438   14.20315652508304    3.90418138485303
O          18.89350589612174   14.36049066051094    2.99037301293942
O          18.24344120572773   14.62446711641112    5.04535246014998
C          16.50768423533660   12.91670135893705    2.47327614281987
C          15.25924693562702   12.28411885282206    2.59545392247404
C          14.52103924523139   11.60111837081958    1.57287710807014
C          14.93988232055199   11.37569843809378    0.31212149173094
C          14.20139847864987   10.72649245579079   -0.72340104184979
S          15.06598622544685   10.53102933107279   -2.22330885849673
C          13.68960238447858    9.83899436174377   -3.01327360062913
C          12.60346744093873    9.80960051182819   -2.16154125290269
C          12.89915680363625   10.25989366319656   -0.85095864072122
C          11.87536412954826   10.20704620817828    0.25820545104604
N          12.42435125947631    9.55591476803933    1.45096340402350
C          10.59204021503143    9.50571954276412   -0.20802977204946
C          10.19049342415396    9.98246248781956   -1.59047641586956
C          11.20996065334496    9.45906654989644   -2.61384820526728
N          10.98243064957558    9.97133760209793   -3.95554725129879
C          13.88804632546325    9.36823039859562   -4.36193880475317
C          13.20074312133512    8.40818744754801   -4.97223110654577
H          -2.44579589568455    5.71919986156299    1.11977628152544
H          -1.63081680553098    7.51685397657221    3.09213407362173
H          -1.94518565631249    9.23296078266078    0.75710800260308
H          -2.64277265679753    9.46636927201232    2.22595781022604
H           0.57370723139989    8.34474066363958    3.44486888814562
H          -0.41967505418227    9.78499309683334    3.23256414072669
H           1.60820906689776   10.06457243006806    1.88937992600242
H           0.25287353669373    9.82295511489204    0.78739344276095
H           2.03930455588983    8.45629469504780   -0.02461327459383
H           2.31432767618039    7.20499028528902    2.59524779776806
H           3.31473686977639    8.36240873849392    1.99847999693236
H           1.69942669681372    4.89395135079061   -1.81724783809428
H           3.44431070629715    6.69391481772083   -0.05039946526425
H           3.90661535118702    5.12094672887717   -2.51535659640123
H           8.42589695644791    6.85360087766566   -0.25714193432819
H           4.91956339815390    6.07302441193392    1.11998156230701
H           7.42558150990819    7.79324524985316    1.47628346380635
H           5.16105003506302    6.97823644273613    3.38978703803797
H           5.53052957821297    8.00193516970650    5.78996042481183
H           7.24847388263950    9.39807612291743    7.10637636511041
H           9.20066965398643   10.69687249099417    7.80515545068992
H          11.46851557495560   11.91306384491864    7.92135505707387
H          13.57183637864134   12.52109603475264    6.31574801983408
H          13.07133651651138   11.36138506289573    3.63426085858509
H          17.09056042199573   12.96499771864256    1.57229105689545
H          13.56284727549652   11.19452487944193    1.85026386632161
H          15.92019190875273   11.71432079847616    0.00305002098944
H          11.62576536979223   11.23936950960886    0.55225258649184
H          12.81939509420809    8.65741664194172    1.19357348157325
H          11.66882258710031    9.37986962316237    2.10740631027766
H           9.80063406243509    9.69745078212441    0.52245500565658
H          10.76835451596155    8.42684706771651   -0.25157658007682
H          10.16852176238120   11.07647879910074   -1.61698597138916
H           9.19441045804417    9.61531146224048   -1.85058273346935
H          11.11333415531692    8.36618994759538   -2.65704045593225
H          11.04467652730595   10.98364449303874   -3.96548692226059
H          10.06249174312235    9.70313263983545   -4.28446007136458
H          14.73456934662824    9.82175106769772   -4.86432532552001
H          12.37916481077429    7.90016859518434   -4.50613627916658
H          13.45190118345747    8.10562160191707   -5.97390622195175
