102
 SCF done       -178.629699235723          0.000519658348
C          15.60647848121114   13.96025610993140    0.69402490665592
S          14.26247634776856   13.62938309574472    1.69716543018401
C          13.54692144820369   12.60046108842549    0.47836849722718
C          14.34388490157479   12.55621365956718   -0.64805057901748
C          15.52292884716947   13.33003190363468   -0.51033361576079
C          16.55397749505880   13.49298621236393   -1.59165108673535
N          16.51217781755808   14.87746940136049   -2.05207205956314
C          16.32900353586812   12.44170860290924   -2.69054991137758
C          14.85617736604869   12.35991638395699   -3.07086958922216
C          14.04902685283400   11.78387300019548   -1.90251049073078
N          14.44682372346794   10.39218554019790   -1.70837714738666
C          12.29100262244588   12.00509845766145    0.81417495839337
C          11.60398949251837   11.07365386806691    0.12961086290842
N          10.39072852326778   10.59276097886621    0.56137335979791
C           9.65237321663873    9.65377673097984   -0.06836638061320
S          10.21222312047200    8.93621997717972   -1.54541007473092
C           8.76896215823792    7.96980883939673   -1.60832826468982
N           8.63568927459114    7.10256129245193   -2.68556301080698
O           7.63066521079981    6.41381487585328   -2.74823334888135
O           9.55039694046416    7.09689151603095   -3.49932568278120
C           7.92179704339384    8.19543680314080   -0.55587299695954
C           8.40380456282957    9.15920272630628    0.34666702649799
C           7.72878001600528    9.60250262130725    1.53814463807361
C           6.50891931719891    9.20286016925252    1.94214771555813
C           5.89773383126342    9.70833708943207    3.13751453773038
C           4.68382228458099    9.40154842534130    3.61675102365546
C           3.72300220905620    8.43299254809924    3.00690183927869
C           4.14352646065994   10.04482612427794    4.87935392086844
N           4.96957972101082   11.08285924585818    5.43094489887643
C           5.85228238052676   10.88471315107571    6.41588187126453
C           6.77689463414720   11.80724957419968    6.82184682955329
C           7.67827376737728   11.66816002128955    7.88900049681814
C           7.81596334907415   10.65288797204712    8.80868238559945
C           8.74939399817226   10.64042622506871    9.87214683727681
C           8.66472474920158    9.55635764533563   10.69685344561637
C           7.65489381871197    8.64473649007039   10.32932822256796
S           6.83540406386006    9.19493697810402    8.89531844106568
C           7.24869334002957    7.47960249278953   10.96100962341928
C           7.69100863892405    6.89620554661568   12.16055602626190
C           6.96529930093444    5.79794592569415   12.53093657555723
C           5.90223042712715    5.47558014377611   11.65917975950345
S           5.90349179505246    6.56938631645588   10.30939894913627
C           5.03484052039084    4.39665598251532   11.80682062604519
C           3.94602743790017    4.02510685562879   11.03817785627608
C           3.20886640379731    4.69919369896156   10.06453486754993
C           2.51340596329728    3.89606564300629    9.03886370448113
O           2.38257362408467    2.68992628532964    9.00701124761963
C           2.04270878705004    4.87040685663816    8.02244387470056
C           1.43197684956027    4.64656648928240    6.82510826784324
C           1.10054322988045    5.75257909733680    6.00524490436895
C           1.39785778558206    7.06841648206387    6.46033513799988
C           1.06343448316150    8.16622262416664    5.64459097995355
C           0.47640925699684    7.96790216827305    4.42643881822104
C           0.18721675645650    6.66863678671680    3.97400778201790
C           0.48737044195469    5.58258783844671    4.74979666394410
F          -0.38438524875791    6.50335486564460    2.76986264870346
F           0.18838973751138    9.02491626336776    3.64326846267106
C           2.02407462139866    7.26747153634421    7.71357346777709
C           2.34474800746626    6.18259663242137    8.48059307539918
C           2.97563818675867    6.07625570643599    9.79645528456512
C           3.16023854009359    7.14152033077220   10.66355371167846
C           3.45662670180342    6.97672289896214   12.02677568674434
N           3.67708262719859    6.87667351575501   13.15011176606721
C           3.00767391356392    8.48728481796090   10.29659069833732
N           2.94929857963580    9.60398229679547   10.02608797974514
H          16.38717861964633   14.60745661376960    1.03887580525659
H          17.55133051781944   13.34996067594287   -1.15612103510594
H          15.60445072128262   15.08906265987486   -2.45296298705131
H          17.21226607005255   15.02823052180617   -2.77039543418236
H          16.63887094800842   11.46356493912628   -2.32201421741052
H          16.93651712467622   12.69485643282853   -3.56250437697385
H          14.72973518466800   11.71264352649755   -3.94010259660101
H          14.46600102369420   13.34813658757430   -3.32627081883578
H          12.97240987881738   11.89477241834684   -2.13915227204625
H          14.08453509932419   10.02202213483817   -0.83806845395631
H          14.11441779902891    9.81394883599308   -2.47188522946995
H          11.87049024864321   12.35679040718797    1.74921051535366
H          11.94198207089280   10.63867904596010   -0.79456636541826
H          10.02313513493387   10.97696935781058    1.42254791676909
H           6.99091413515342    7.66867330783880   -0.45924494642689
H           8.25584986087023   10.32266097198730    2.15303490188396
H           5.95562414686328    8.49326586271751    1.34915616573922
H           6.50622943374480   10.41600103325937    3.68879173592190
H           2.84776896169822    8.96034819531762    2.62653165244814
H           3.37982300248089    7.72532320991756    3.76216147993544
H           4.16654097239953    7.87488988507337    2.19013389870733
H           4.01007048602128    9.26976002649933    5.64183692985853
H           3.15610125813999   10.46435679936785    4.65378615730187
H           5.01073940407019   11.95260161319633    4.91784793570289
H           5.77955629745566    9.92271232979915    6.89898220465345
H           6.82516715682012   12.74249426787437    6.27829502984183
H           8.36481348198206   12.49448806202283    8.02985731533767
H           9.45293326404671   11.44386278548666   10.00536107912603
H           9.28767456622051    9.39692116777940   11.55812278824945
H           8.50900785183954    7.30247141251884   12.72775054986077
H           7.14120597274656    5.23060916292817   13.42717979683048
H           5.30983041258318    3.71513373707801   12.60261961428475
H           3.63596813043394    2.98941748438307   11.14767112158897
H           1.20444936484896    3.64240411581383    6.50134574724790
H           1.26246815049394    9.17006755900510    5.98591836535289
H           0.25354419632642    4.59244783756742    4.39135770233891
H           2.23678475923240    8.27543357129750    8.03182597174339
