75
 SCF done       -142.138334651327          0.000907289196
C           1.65187505331125   -0.00249340825945   -6.81773913428322
N           1.65100614894180    1.31145867781019   -6.96949732486437
C           1.21005345281606    2.01928702751425   -5.93816096769080
C           0.77681132193497    1.42654950295899   -4.76677554266229
C           0.82267179190487    0.02642116882084   -4.70811767598557
N           1.26625029854069   -0.67719815884309   -5.75824860635702
C           0.39353958571361   -0.68821324667354   -3.52819007053049
C           0.46256215277686   -2.02895376366895   -3.44570569166443
C           0.14858263901859   -2.87059357213246   -2.32328458962717
C          -0.71153561393095   -2.62725011196832   -1.28670701937462
O          -0.75612373116662   -3.43451365975117   -0.15909473687018
C           0.02054077944647   -4.55329383563893   -0.19280511302018
C           0.83677011884119   -4.86015539750270   -1.31880816912367
C           1.51320832420603   -6.02608486861757   -1.17642327902489
S           1.16377398244118   -6.76865530653431    0.34110796445030
C           0.09315981775865   -5.49012677479327    0.78346779330659
O           0.91448662500733   -4.02634978143462   -2.39116766671214
C          -1.70932208963578   -1.60200711214723   -1.17022353837733
C          -2.36539493005543   -0.98388781687975   -2.17802476290960
C          -3.41077977405722   -0.04160224268799   -1.99781214042015
S          -4.20957498221469    0.60499956662925   -3.42531951676493
C          -5.25563572787990    1.53291786241978   -2.44834006107679
C          -4.99512643464856    1.36274677611392   -1.08323543678495
C          -3.95589219310929    0.47602934709516   -0.83074027596246
C          -5.95035290935937    2.18823829935893   -0.29266739149031
O          -6.02377864857000    2.30522099903679    0.90495200507210
C          -6.79076054289084    2.83204573367486   -1.33787279257361
C          -6.34881100042382    2.42772637215192   -2.60159186916313
S          -7.27665253144774    3.10079350625620   -3.86396831097804
C          -8.31346709261733    3.90600383075768   -2.69324846058685
C          -7.88995481017655    3.68252246613783   -1.39414788778312
C          -9.36614479974144    4.77659036872385   -3.09496649929605
S          -9.59711413426210    6.24723132745533   -2.19867158883774
C         -10.83124158245502    6.82556277150616   -3.27229448038735
C         -11.06244706602519    5.89317591393253   -4.29522743856849
C         -10.25492951539711    4.71096362815093   -4.16885086349055
C         -10.50464485275094    3.61234548827599   -5.03826126068274
C          -9.97685786141536    2.32249457653614   -4.81889601521966
N          -9.65086130104376    1.23316664556892   -4.66486210748584
C         -11.40574658243383    3.74859362268131   -6.07698542223181
C         -12.10671370141422    4.93879448674609   -6.26798239383257
C         -11.97299076356135    5.99121286735050   -5.38001107832597
C         -12.78157590865061    7.12322099156438   -5.62074202219994
N         -13.46552754323172    8.00404022467122   -5.89304916112622
C         -11.47019630572639    8.06711071123616   -3.06307581386650
C         -11.19934734216307    8.91321022513009   -2.03589480511590
C         -11.85458356620649   10.15232992137063   -1.83280756919863
S         -11.41060949879347   11.14948297209650   -0.47235060868310
C         -12.57710453156086   12.35740589659145   -0.92610179160128
C         -13.25892206434840   11.98583520906581   -2.06881852306467
C         -12.85574677376951   10.75493952263446   -2.57586369990273
C         -12.74377289626159   13.51908209320523   -0.18661511532507
C         -12.88291464295904   14.52929456362145    0.46902468059227
C         -13.05453948687244   15.70074047271748    1.21861396021562
C         -13.95195057810925   16.63863293635310    0.91929478792267
H           2.00919226499263   -0.58545720632905   -7.65782853291521
H           1.20975893902079    3.09437293272618   -6.06779082412361
H           0.41943610068704    2.00891422057977   -3.93239401133069
H           0.02343101706105   -0.08724165050066   -2.71041681980147
H           0.91774561534750   -2.55640342646817   -4.27462437368168
H           2.18875443865246   -6.48603550863365   -1.86644658882424
H          -0.41419681565147   -5.50416227222431    1.72507581425097
H          -2.02604218090475   -1.43957473132517   -0.14917969429493
H          -2.11156032830338   -1.21614084348086   -3.20259911831644
H          -3.61305421397759    0.21385935335989    0.15261918795003
H          -8.39032955509615    4.09777819416577   -0.53801146377222
H         -11.58542127251768    2.91096478309901   -6.73388713565853
H         -12.79426260868157    5.02812730962166   -7.09541148832237
H         -12.22666746744278    8.33999548659069   -3.78084061283268
H         -10.43987640836191    8.64236480940248   -1.31292124325023
H         -14.02292038584185   12.60243930050579   -2.50769374532774
H         -13.27883328673632   10.31259999857971   -3.45959627845018
H         -12.39688778632357   15.80661000493545    2.07298545349572
H         -14.60510536324155   16.54210479877472    0.06814452794041
H         -14.05482648400048   17.52850493042738    1.51538204679253
