105
 SCF done       -179.225549302521          0.000580417573
C          -0.00935284764033  -11.16711654070806   -6.23036226367472
N           0.31723801096428  -12.22883409977615   -6.94869397989745
C          -0.61827549892883  -12.68375571676698   -7.77257956641863
C          -1.86341106673792  -12.09440595378514   -7.88457508866714
C          -2.10842713230148  -10.97297960438554   -7.07684284433128
N          -1.15421604960734  -10.52352654777360   -6.24825784425876
C          -3.34445330095904  -10.23231854213358   -7.05403300608547
C          -4.43057317957825  -10.50729524381020   -7.80986645789574
C          -5.64175486226760   -9.77574826311911   -7.77251583027311
S          -5.83104127510339   -8.41275576860108   -6.71153855380909
C          -7.46213308505384   -8.11767021512416   -7.22528198313080
C          -7.85134823404169   -9.05368373620617   -8.20620725306665
C          -6.81340860094188   -9.99503917129071   -8.51113647297285
C          -7.06403729563303  -11.00546150469788   -9.47834569704958
C          -6.11958997684040  -11.98525526614336   -9.84982877112275
N          -5.41777619288451  -12.81931841899172  -10.21139959687957
C          -8.29431217305692  -11.06499285126895  -10.11129019785607
C          -9.29721284258300  -10.14746931289380   -9.81701631415952
C          -9.09365133012667   -9.14720204864896   -8.87726038707954
C         -10.18111891907152   -8.27192285106696   -8.66355047324948
N         -11.12268066131819   -7.62078622133675   -8.57102311622410
C          -8.22918811344929   -7.08104206276069   -6.67785394802630
C          -7.79372886687353   -6.20415652064170   -5.72143768724442
C          -8.60815740247086   -5.20267840408860   -5.17776840496434
S         -10.26403170665552   -5.04746312561228   -5.69529552795342
C         -10.58727025659926   -3.72112433818060   -4.61697662022502
C          -9.42842032177534   -3.39888108085592   -3.87867626213595
C          -8.31117132298050   -4.23523589341607   -4.19764222151731
C          -7.07731185403121   -4.02202061220397   -3.53452366192133
C          -5.91964614515374   -4.78839057062002   -3.78816332887014
N          -4.93945889192041   -5.36558659708130   -3.94127218142314
C          -6.96678545459446   -3.01491026591256   -2.58810268008052
C          -8.05236970708091   -2.20428623312771   -2.27767107097015
C          -9.27567996575809   -2.38103915804103   -2.90787575323193
C         -10.31386930111184   -1.50296159436694   -2.52687558733423
N         -11.09355916707030   -0.74667565589500   -2.15610470518507
C         -11.86311161792300   -3.14478975890835   -4.56775612482971
C         -12.88887114245089   -3.56675411208356   -5.37099771516152
C         -14.19352050424028   -3.03598407854066   -5.33366521407161
C         -15.22404980382073   -3.45622981999502   -6.16685999833434
O         -16.49393841564595   -2.93408448997048   -6.07710706870855
C         -16.67972647992665   -1.96865399948685   -5.13485686301455
C         -15.61947941205628   -1.52711494292250   -4.29228732967879
C         -16.00326200172873   -0.55795388297131   -3.42523366226594
S         -17.67124142956463   -0.16988656081051   -3.62529276721095
C         -17.84957456923885   -1.32625827346136   -4.89041450618766
O         -14.36952622821197   -2.05360991651267   -4.37919371291052
C         -15.07005456755798   -4.43760108367500   -7.18190905300995
C         -16.08122181398103   -4.84505097765345   -7.99303612690273
C         -15.97867997071386   -5.80582044976421   -9.04920875544708
C         -17.11252072403355   -6.08258726268345   -9.79232796105373
C         -17.07391407748106   -7.00083871075510  -10.85821429658487
C         -18.04719204834948   -7.43985909504659  -11.75229163833873
C         -19.49205226204704   -7.07759137040610  -11.87559315578516
C         -20.35197304398361   -7.76471031321333  -10.79308777632968
N         -19.99318393087038   -7.32419218120171   -9.45749282520853
C         -19.73581158627780   -5.56095375662826  -11.88811381411989
N         -18.98214533044834   -4.95768948418489  -12.97603371001472
C         -17.39997195836289   -8.38428925861468  -12.63426250147615
C         -17.87374512455148   -9.09619481775171  -13.67461176914379
C         -16.99121330837351   -9.97931914099358  -14.48436985427348
C         -15.59091347407780  -10.09853014502949  -13.97311965012792
C         -15.13249170987817   -9.38773393516429  -12.92768073776499
C         -15.99379298440676   -8.50458873676637  -12.23058914245045
C         -15.80554826605335   -7.66204191121702  -11.15737768703846
C         -14.66321514843264   -7.37221358741450  -10.37330672587043
C         -14.74685507866946   -6.47752942858587   -9.36018270367958
C         -16.95110205907470   -9.41369697130993  -15.89150974530335
C         -17.40326530466769  -10.04145696495186  -16.95908434999708
H           0.74864096688967  -10.78775329799234   -5.55578272728987
H          -0.34872836805676  -13.55347170573065   -8.35874168124871
H          -2.60334374379471  -12.48675261496777   -8.56229881616476
H          -3.35644124752176   -9.40091000448804   -6.36162968702364
H          -4.40712116402682  -11.33743503296704   -8.49893309432263
H          -8.47347579134605  -11.83724062538506  -10.84445041097984
H         -10.24826099742331  -10.21178298004056  -10.32378109964962
H          -9.24204705566751   -6.98212873754146   -7.04125160549274
H          -6.78032516964975   -6.28469104033600   -5.35678780688803
H          -6.02169175745059   -2.86119978543592   -2.08938053480571
H          -7.94689201333124   -1.42429173072916   -1.53887254828469
H         -12.03754090265376   -2.34318081046628   -3.86791637767257
H         -12.68991928862363   -4.36159030945698   -6.07085760275163
H         -15.40675113332813   -0.05800983349454   -2.69146479931833
H         -18.79300982800591   -1.46527202212431   -5.37508763767460
H         -14.08805075203203   -4.85852071349977   -7.30324216958776
H         -17.05930616824981   -4.40567804240079   -7.84718049970493
H         -18.04025312879021   -5.59402947911504   -9.53754865072307
H         -19.84203607251546   -7.45519030023525  -12.84140989147090
H         -20.25932693536235   -8.85665694865470  -10.92751076337900
H         -21.39718143654219   -7.49175825987010  -10.96369764014660
H         -19.08018887690674   -7.68822771424080   -9.20540068076112
H         -20.66279494745398   -7.67341972776742   -8.78134892048161
H         -19.50591401871269   -5.14247903511363  -10.90004594876942
H         -20.79724322234713   -5.38272050223854  -12.08472075066950
H         -17.98816872177551   -5.10206055543883  -12.82656438216867
H         -19.14982005825879   -3.95812287352042  -13.00769322127479
H         -18.90259884297699   -9.02600563830627  -14.00065099747026
H         -17.44484933019681  -10.97807545269558  -14.54408884668461
H         -14.94884561604115  -10.77344143687312  -14.51891836910868
H         -14.10805714596158   -9.48625139694363  -12.59833320502993
H         -13.72899893233828   -7.86897638975343  -10.58943027643610
H         -13.86872920738571   -6.27028705548094   -8.77118026833113
H         -16.50813480676321   -8.43017919017059  -15.96214921348986
H         -17.84783036882751  -11.02210741967824  -16.90405010038671
H         -17.34476355769835   -9.59985193423575  -17.93931448718033
