76
 SCF done       -136.620062129267          0.000579026613
C          -0.80031701173348    2.20293311442400    0.70536914346873
N          -0.67409113963852    3.30867695252916   -0.01089738165579
C          -1.49857153000836    3.43728912811335   -1.04106475288255
C          -2.44163911030092    2.47640421503491   -1.35754018786044
C          -2.49225522561173    1.34347394802100   -0.53326478886054
N          -1.65359725455133    1.22507604370299    0.50355888512945
C          -3.44096732814815    0.28212819425920   -0.76757450618100
C          -3.50491894801190   -0.81503875656124    0.01565522317950
C          -4.42445351361259   -1.88001491312417   -0.16337178053434
S          -5.60174393401678   -1.83571212639881   -1.43777780738357
C          -6.32596950838360   -3.32834319021877   -0.96159856173812
C          -5.63103305602504   -3.89260663577650    0.10977744812118
C          -4.56601108826037   -3.05471351759666    0.58576225213525
C          -3.80382024011725   -3.48601778895822    1.70595709377649
C          -2.75612528357035   -2.73106248516154    2.27954673822087
N          -1.89655976355159   -2.19446792760077    2.81722010641497
C          -4.06996456117136   -4.71176041372089    2.28563368379730
C          -5.03826109833906   -5.56790936451801    1.75565234153448
C          -5.80518701916147   -5.18761862963370    0.67294715719676
C          -6.64789230714022   -6.16660698505220    0.09827975378285
N          -7.24226615429877   -7.04315280193687   -0.34175840751127
C          -7.53875272153073   -3.74562014362866   -1.59606265144259
C          -8.56748888231980   -4.31553217497235   -0.94754029849461
C          -9.79873696053148   -4.71095084235695   -1.60016608131413
N         -10.77411315693942   -5.13230240199303   -0.79169978056876
C         -11.90185732068725   -5.51598171714058   -1.35985080444748
C         -12.08992004175942   -5.48152089397803   -2.73130337506176
C         -11.01634482577968   -5.01377993986456   -3.50086384826469
N          -9.87935483372962   -4.62786708118219   -2.92350583847056
C         -11.11683913433028   -4.95242827970622   -4.94407211344301
C         -10.06399332131413   -4.66416736575741   -5.72805353539731
C         -10.08468815812755   -4.59603903444329   -7.15515753077954
S          -9.10493386230979   -3.39445257191727   -7.92119811959323
C          -9.73500231558409   -3.73547881018838   -9.49645939549705
C         -10.65350834913247   -4.79100582990838   -9.43577697346619
C         -10.83149223973315   -5.30076309484804   -8.10301878953747
C         -11.62495872353590   -6.46664900540676   -7.91214645873424
C         -11.69201526414313   -7.17753452163682   -6.69289190879650
N         -11.77774475561731   -7.85092037389952   -5.76802926627025
C         -12.30508505726670   -7.01580304852714   -8.98170244380921
C         -12.20687342733884   -6.46171056865961  -10.25911718968666
C         -11.37965844621086   -5.38248509095306  -10.50518596282724
C         -11.31080033330174   -4.93908822660060  -11.84526628936658
N         -11.33440858034692   -4.65688183422474  -12.95711973874202
C          -9.32196488065540   -2.98929976398335  -10.63030140475306
C          -8.41573082123695   -1.99183836524182  -10.61427744708124
C          -8.05117076772705   -1.27904181162079  -11.81801536364149
N          -7.14143334397454   -0.30857521774828  -11.69784689185600
C          -6.81520833624612    0.33872988945053  -12.80210022090710
C          -7.37315826972029    0.04720954347009  -14.03576594963021
C          -8.31954550930463   -0.98574948439325  -14.06915652680379
N          -8.64282693185312   -1.63359944949507  -12.95518193805701
C          -9.01574644460509   -1.43815854732616  -15.26851542083705
C          -8.87096046231377   -0.93533213795475  -16.48784556982430
H          -0.13087436563139    2.09287668578773    1.54930724076098
H          -1.39059021727213    4.34384650200573   -1.62364212330743
H          -3.10909135983375    2.58889552405917   -2.19716249936971
H          -4.11179718407400    0.40529114982025   -1.60819457727565
H          -2.80889780219355   -0.88427409257802    0.83903652837607
H          -3.49137010542782   -5.02748361737641    3.14077399474865
H          -5.17453519341364   -6.54938272279798    2.18400927834107
H          -7.65778712502558   -3.50333918726029   -2.64352522418750
H          -8.55151103213469   -4.48643795624330    0.11829893904671
H         -12.67772044813006   -5.85787764332344   -0.68637389164845
H         -13.00741272913221   -5.80870517840702   -3.19138918590533
H         -12.09260718156877   -5.15699610575519   -5.35920578226356
H          -9.13808645339408   -4.38518333324888   -5.24217635056645
H         -12.90695636574288   -7.89901844013058   -8.82874603679114
H         -12.75902016798777   -6.90264565539813  -11.07536573572082
H          -9.76909256081773   -3.24093500834580  -11.58081613259995
H          -7.91863101401540   -1.67617094679508   -9.70814883653050
H          -6.07581124126809    1.12192591055533  -12.68624109132270
H          -7.08774341437496    0.59124879443440  -14.91983089173590
H          -9.69735094351250   -2.25678261126517  -15.08241529088994
H          -8.20261513292457   -0.11971700662600  -16.70899385896466
H          -9.42524640745960   -1.32888292430256  -17.32239499707295
