95
 SCF done       -175.310592469585          0.000837761271
C          -7.79522312407233    2.97283265327532    7.09723395709062
N          -6.48881025903525    2.92057967518462    6.89444022836371
C          -6.01282664002659    1.77609753876808    6.42544436373492
C          -6.82886615564408    0.69097132010938    6.15801198747853
C          -8.19808728463287    0.85293385393488    6.40636835875754
N          -8.66651222597712    2.01339480179051    6.88101674582757
C          -9.13883491050158   -0.21705087431883    6.15997776573313
C         -10.45769592127913   -0.09319166977494    6.40149252442835
C         -11.40423404810885   -1.13070635448147    6.15674937254412
O         -11.01809048477791   -2.31951693449129    5.65666994326511
C         -12.11181293659492   -3.10264923334691    5.51380672841449
C         -13.23566643109463   -2.41201870002008    5.93135625139565
C         -12.78259198578841   -1.14916057484359    6.34435136976506
C         -13.61222868570751   -0.03790472497046    6.87731162366485
F         -13.53928329698069    1.07272989150111    6.11944928996030
F         -14.90970909553020   -0.36400431907088    6.94937458518653
F         -13.24297250775112    0.33714850717153    8.11628034608254
C         -11.99735046863075   -4.41975029142686    4.98808577683995
C         -10.81834407781490   -4.98526046057464    4.64039011510008
C         -10.70418008090688   -6.28714450860620    4.08524243725617
O         -11.79267768967643   -7.04330981306328    3.83519698987802
C         -11.39178108947075   -8.21148406089795    3.28083220157780
C         -10.00951528838944   -8.22186976524691    3.17373827621795
C          -9.57136295669133   -6.99347084524152    3.68902093245436
C          -8.16918515004536   -6.52001110486912    3.77636522369034
F          -7.83671159622793   -6.07637109581451    5.00289556995016
F          -7.28445322918252   -7.47935791453013    3.46792882082494
F          -7.91338439457170   -5.49197159385829    2.93889187962154
C         -12.37566168402179   -9.15109815817964    2.86879002426869
C         -12.07226082391392  -10.29833783273554    2.21598650262240
C         -13.03731081055794  -11.24200598504047    1.75735318844955
C         -12.75327683729160  -12.21931022103083    0.83639709328763
O         -13.62869260081607  -13.24645003372187    0.54833085644686
C         -14.83959108729400  -13.17312147546059    1.17085000975714
C         -15.16953013623874  -12.10404514013146    2.05479033932204
C         -16.42781156452894  -12.20270630579592    2.54925311597844
S         -17.23107745088248  -13.60474597907198    1.94482394838044
C         -15.85298976073830  -14.05994538005610    1.01455241062426
O         -14.28183391770667  -11.11719833505599    2.35926831964717
C         -11.54155654975176  -12.31353394028927    0.07524883696907
C         -10.77649808259400  -11.26195961777194   -0.29231048721036
C          -9.50984653012099  -11.29512395227189   -0.97187863974345
C          -8.80877705168126  -10.11227788304302   -1.08021557087154
C          -7.53416955926355  -10.07732038891273   -1.67764108963450
C          -6.62154587044226   -9.04861392544273   -1.86397755161363
C          -6.71925312562902   -7.61618974387566   -1.45248434489385
C          -7.88740523487788   -6.90726451448995   -2.15456644638617
N          -7.71042391693171   -6.99148327113449   -3.59434383050550
C          -6.80993193035655   -7.47969489211294    0.07751206174166
N          -5.56946826418045   -7.95221526098920    0.66625076097014
C          -5.48713203368133   -9.62241576457123   -2.54686392521804
C          -4.32857316139278   -9.07373759747038   -2.95759710865953
C          -3.30865704188217   -9.86455291772083   -3.69692489088508
C          -3.62220627251948  -11.32138007318994   -3.82582146116965
C          -4.77672141221052  -11.86060255631308   -3.39462767252323
C          -5.75014653435031  -11.05218242273613   -2.75836529384721
C          -6.99080450195269  -11.31934103243257   -2.22122701822968
C          -7.74104399170764  -12.51518557820317   -2.11758273227014
C          -8.94900327757397  -12.50430805177236   -1.50334374059330
C          -3.18846573732687   -9.27326343270698   -5.08834354513589
C          -2.08297626634193   -8.75295192220155   -5.58356825921599
H          -8.18916462485983    3.90769813927038    7.47587877537567
H          -4.94277472540116    1.73878224979356    6.26389998307689
H          -6.43408251378594   -0.23735038012218    5.77735360194381
H          -8.73706313183690   -1.13913459203819    5.76425469289481
H         -10.83689795562936    0.83750907971291    6.79640081828233
H         -14.24573486065562   -2.76584865631286    5.94022711885381
H         -12.92002133043314   -4.96660684431387    4.86884328000728
H          -9.89721951157729   -4.43861970214314    4.77408316268643
H          -9.39271138736031   -9.00437399631570    2.78370324320248
H         -13.40467075460289   -8.88191903866336    3.05166499266519
H         -11.04086346513017  -10.55249427284421    2.03251840945547
H         -16.92357560475146  -11.54041128574537    3.22728129361889
H         -15.86846780661342  -14.94408828686223    0.41260101472059
H         -11.31037875853059  -13.31455408633185   -0.25908195378225
H         -11.12984300466666  -10.26701868283460   -0.05342187040887
H          -9.24319263003470   -9.20678894242546   -0.68060682187417
H          -5.79546447225742   -7.11182560293276   -1.75259994785355
H          -7.94421012036854   -5.86988801175391   -1.77962371756053
H          -8.82971789189039   -7.40311943511468   -1.91370745015410
H          -6.85949705398584   -6.51342025744466   -3.87194328261162
H          -8.48636404042376   -6.54881410145551   -4.07369427822406
H          -7.70014052475722   -8.01556545504998    0.44413787109988
H          -6.92123022586896   -6.42376323055232    0.34143201885206
H          -5.44900447865954   -8.94015259128695    0.46431731280741
H          -5.59290373219681   -7.84090633609646    1.67341388671661
H          -4.10061657871206   -8.02813565480827   -2.80299247461788
H          -2.33642593700317   -9.74196999542371   -3.20063402670320
H          -2.87191921046342  -11.92024967764262   -4.31977978274914
H          -4.97169154773516  -12.91639537147112   -3.51809199602643
H          -7.33710503678342  -13.42948309516094   -2.52787134652530
H          -9.52005002861073  -13.41563370668246   -1.42218903441878
H          -4.09871614316366   -9.31950881125977   -5.66957340438370
H          -1.16824868574124   -8.70096865940087   -5.01555818902830
H          -2.04452718989778   -8.35794052477434   -6.58461942439441
