95
 SCF done       -144.451529048867          0.000550277005
C           1.47817831609033   -5.55430966831396   -5.76032336518742
C           0.94202203389013   -5.70496417504904   -4.56530763580073
C           1.50531494772283   -5.11667555375633   -3.28606776982616
C           2.48001566936119   -4.01226730243613   -3.52255021413668
C           3.74644512259740   -4.05220106408848   -3.07179057702967
C           4.21401049261033   -5.17314739171679   -2.34313603018370
C           5.43358161064227   -5.47496307028118   -1.77498865040718
C           6.65669262861251   -4.76758450871614   -1.70859215985312
C           7.70627763403194   -5.30327590888656   -1.03878398759541
C           7.62648844641639   -6.59213512202229   -0.41234635715837
C           8.74657780826428   -7.14313082326199    0.31071815303470
C           9.81287311158047   -6.44897916387478    0.75158024814263
C          10.90616528156775   -7.03749934270179    1.47362416484107
C          11.80975327685847   -6.30761252385820    2.17943550904733
C          11.63193566628219   -4.89734819302918    2.45343704894925
C          10.44071313548883   -4.25086327013134    2.74395561162811
C          10.74068069568955   -2.90884224169261    2.97919492238716
C          12.10627006875108   -2.75363595199132    2.82438530807666
C          12.90019777530860   -1.54309336256829    2.91778205965734
C          13.74068218754563   -0.98973337253648    1.96242542242487
C          14.26217977282981    0.17918130443217    2.50140395042435
C          13.74384556045671    0.33275839950981    3.78700067421558
C          14.09336689260706    1.41603596549244    4.64050140478965
C          13.74523592496300    1.72997429197733    5.90668106481931
C          14.25585521960710    2.91579474363474    6.54875577575552
C          13.87138318585084    3.25910430059578    7.85499381546810
C          14.40605066732472    4.41505597366613    8.38605249749767
N          15.25147591871324    5.18408340157148    7.70935250694054
C          15.55275763706820    4.77612807595814    6.48798439971643
N          15.10948373147058    3.70183504051169    5.87621213382074
N          12.90719777482164   -0.73577372036641    4.01743822032031
C          12.12806037510015   -0.98599307530200    5.20248838877067
C          10.90158079866665   -0.07813031588013    5.27848586414191
N          12.63838243003804   -3.97182549337108    2.50127373348359
C          14.04903787319122   -4.23742035905235    2.36334041716067
C          14.70767150147655   -4.43979622996536    3.72627223873193
O          12.93854585787965   -6.86660946058836    2.77688752858257
C          13.04867253226058   -8.21629012521867    2.63581711686660
C          14.06070644141231   -8.96886586805162    3.13178521277852
S          13.83983259316135  -10.63920721204171    2.75807962757176
C          12.36595029535153  -10.31009429658216    1.92168383530069
C          12.07218965071582   -8.98714839705975    1.93804979527994
O          10.98364066994269   -8.41963950058601    1.35305928408355
C           6.45817536162319   -7.31427850968803   -0.49031985937963
C           5.32595846585038   -6.78125347971079   -1.14142964295081
C           4.04058454250609   -7.28173426686797   -1.30518281731229
C           3.58972177315836   -8.58323570445483   -0.70998189045122
C           3.26365385877425   -8.39254026135908    0.78843793333059
N           2.16724114217778   -7.45479108429909    0.99078130307155
C           2.48340258772104   -9.35234081034254   -1.45036383366189
N           1.14463955326111   -8.79558731550444   -1.29821010125869
C           3.30735398095193   -6.29398876010722   -2.05894463059310
C           2.02925236455102   -6.25912261718209   -2.48651899127759
H           1.04243740831941   -6.01110425088665   -6.63282247269407
H           2.37015755939420   -4.97189680348411   -5.91745458861500
H           0.05733567440704   -6.31197352343210   -4.42748328270620
H           0.64380669643227   -4.70223944235376   -2.73701644214629
H           2.10932134675675   -3.16448761192957   -4.07990896662827
H           4.42513479617119   -3.23106411527931   -3.25642102435316
H           6.73992790166831   -3.80373798588989   -2.19035952859420
H           8.64180366441538   -4.76788504874248   -0.99173379702304
H           8.68211111818212   -8.19574253025822    0.55441702292891
H           9.89552448173096   -5.38665938342378    0.58671340218763
H           9.47545921256341   -4.71095075574930    2.80876103487081
H          10.03562043159281   -2.13414127118999    3.20465125019811
H          13.91592330310108   -1.37609725284209    0.97704667380362
H          14.94448237059304    0.85573310629335    2.02584234980997
H          14.77815739618343    2.11337037907620    4.17191665245953
H          13.07746829643555    1.13878746710074    6.51227181437459
H          13.18441921720928    2.64327645981422    8.41507536858920
H          14.15802374020740    4.75160247332966    9.38545826150478
H          16.24220120528702    5.39816139167199    5.92933325220182
H          12.76423739922320   -0.84856289509174    6.08093672834789
H          11.80664834241007   -2.03095544284534    5.17378426384663
H          11.19245581448073    0.96880460648040    5.25752040554306
H          10.35102501215987   -0.27458838831536    6.19477612137541
H          10.24517343865937   -0.26173426559571    4.43236530508425
H          14.51638581955361   -3.39258660862900    1.85447368107351
H          14.17849977232647   -5.13004784606251    1.75022790119964
H          14.59304141339126   -3.54583291380198    4.33557195774513
H          15.76767212137714   -4.64035843638465    3.59860582543506
H          14.25096796112994   -5.28107493447436    4.24074503859421
H          14.91398478106205   -8.64388613930061    3.68937208852859
H          11.80828347769168  -11.10390717470720    1.47110493361041
H           6.40411559706715   -8.29143796344517   -0.02944424775844
H           4.46382020872107   -9.24727775555987   -0.73812372236029
H           4.18927746739236   -8.07087948438044    1.29309782966123
H           2.96242901744074   -9.35376972286028    1.21964008168402
H           2.38956612993147   -6.57563541077995    0.53317537388909
H           2.04218239921579   -7.27101770119096    1.98074325213484
H           2.53134202306348  -10.39221756243929   -1.08454130835565
H           2.72335078186245   -9.37056233907418   -2.52058872629821
H           1.03412515481648   -8.45332055957850   -0.34588201316462
H           0.45085569971517   -9.51470285413403   -1.47097635766605
H           1.35273150209123   -7.07761213225399   -2.27125004921765
