112
 SCF done       -183.798387554333          0.000323053072
C           3.86466793629419    2.29668711730157   -3.45042747136768
C           2.71484274047343    3.26120869212329   -3.60101954319385
C           3.38695446839213    4.66916688307636   -3.52386820853183
C           4.92089444034474    4.69535750996516   -3.63837555185362
C           5.46614283431988    5.35545813982323   -4.65947047576470
O           5.82723936234912    4.24500073298832   -2.69439594751408
C           5.75870012346177    2.98622549231576   -1.98688878338371
C           4.29516585727803    2.61855713605382   -2.00320479923656
C           3.44871383555071    1.70509549339542   -1.17816567952517
C           2.16179885260001    1.87931071839357   -1.46534259188372
C           1.68642262871103    2.92944625685966   -2.46177844283810
C           0.35261476941243    2.48896367019858   -3.06745783871446
C           6.30935063205527    3.20929648024417   -0.57962859669095
C           7.74911033221474    3.72133988013632   -0.55744000574310
C           8.77092863117774    2.68399013727977   -1.03212103613775
C           8.76527741460014    1.46780515183916   -0.18329596627606
O           8.94451500754793    0.26083373917444   -0.77126084821598
C           8.58889933037951    1.28061163586288    1.15987311511364
C           8.34132818251025    1.94846981152579    2.44106187060504
O           8.20278637406322    3.11156561878749    2.72079694737103
N           8.28707160415487    0.89914304465679    3.35477117710921
C           8.47127088378217   -0.37690636253977    2.81849049054730
O           8.45449520337992   -1.40015629034099    3.45488271827976
C           8.66636599176941   -0.12469673671850    1.39458005056432
C           8.88869790353674   -0.72261232412040    0.17536788070228
C           9.04246229556055   -2.09736203625745   -0.15955533439425
C           9.28654960262154   -2.55879423729970   -1.40316634902327
C           9.46050263540931   -3.95087792275380   -1.68130109791129
C           9.78259567278488   -4.47812077965037   -2.87319704150090
C           9.97320952644531   -3.68978928668887   -4.12683832991433
C          10.06099406856933   -5.95296650941442   -3.05529881133173
N           9.98475770460016   -6.77920514094663   -1.87658042461707
C          10.90056085514196   -6.77974300898978   -0.89248545733079
C          11.94296050494578   -5.90525711838308   -0.78818353110788
C          12.92209843634076   -5.99106362293813    0.21004782202034
C          13.90515840055338   -5.04779540884838    0.38899836342609
C          15.02703474132230   -5.11329545178966    1.24360343383449
C          15.87059450839559   -4.04585580346797    1.14010390141131
C          15.43260259359356   -3.06347959847549    0.22667560003811
S          13.93082390934552   -3.53497858154845   -0.51344045414743
C          16.07072094984196   -1.88329719669449   -0.12821467035585
C          17.40407240064827   -1.50446840091414    0.09887231307935
C          17.75557798489972   -0.34953272226057   -0.54109614639943
C          16.71909441662660    0.24569951494229   -1.29438786670691
S          15.25995070402050   -0.68433205444712   -1.11335807059258
C          16.86247633589207    1.43948845050067   -1.99367524148682
C          15.96806558924675    2.18796255038092   -2.73829647179728
C          14.68376333913480    1.96119838482802   -3.22373420014682
C          13.84782615969457    3.14897988200300   -3.50216093442367
O          14.19365599534156    4.31279974920349   -3.48099824744025
C          12.49292754936191    2.62642867463921   -3.78418674250961
C          11.34920440629824    3.30898783372560   -4.06897686469448
C          10.15931565159218    2.58470926629741   -4.31586998387146
C          10.17996831080677    1.16378974431547   -4.22267459079662
C           8.98671878343677    0.45502654784448   -4.45739067230168
C           7.84941526685603    1.13568521350701   -4.79258014945048
C           7.81509620692355    2.52960056100330   -4.91144657671483
C           8.95995109134063    3.23670821496283   -4.66334845016237
F           6.71030147344829    0.44495861694927   -5.02159652576302
C          11.38731251626987    0.48363722859064   -3.92856519031750
C          12.53221244779186    1.20440241733311   -3.73633414823660
C          13.92313426736770    0.79683561251995   -3.51838444404284
C          14.42346712572853   -0.46787986941944   -3.79060466393037
C          15.79667247310646   -0.70792990732136   -3.97730552360571
N          16.90998521923009   -0.91753308671207   -4.16982071522840
C          13.62045897128261   -1.59254776106274   -4.01371063514977
N          13.00207100310558   -2.55250262080026   -4.16326046097635
H           4.64562171152796    2.48846582550027   -4.18495235536418
H           3.56705950892127    1.25229707518127   -3.54734038651216
H           2.21147219644469    3.16168873641048   -4.56530805266927
H           3.10072547964082    5.19538154422833   -2.60884444671860
H           3.02092365004331    5.27828457033163   -4.35082559129174
H           4.86986183847019    5.85434882593216   -5.39962377117397
H           6.53373256160122    5.45002750566650   -4.74719086838388
H           6.38087618363388    2.25966992061855   -2.52802311529884
H           3.86985579745080    3.58610883621529   -1.72257708027509
H           3.83051037213079    0.98168007487360   -0.47778895031994
H           1.38628715870599    1.29463357030076   -0.99440141639555
H           1.49720364919700    3.84732076355055   -1.88771130414718
H           0.48254248090326    1.57331984174861   -3.64061242722820
H          -0.04086014570396    3.25871982996730   -3.72779267561295
H          -0.38090347849116    2.30403411828534   -2.28564087662587
H           5.67547161713025    3.94077071172548   -0.07539726109391
H           6.23595469697739    2.26755426225372   -0.03282035019050
H           7.99511609661681    4.01890542842826    0.46238531079568
H           7.81529606390504    4.59698774223232   -1.20251311390730
H           9.76904723049271    3.13264103965621   -1.00203131369636
H           8.58004704977555    2.38656781623249   -2.06327882010757
H           8.12750600126959    1.05221544444976    4.34029789289122
H           8.95659180577855   -2.77286098879570    0.67992797499000
H           9.38505965752294   -1.84820787726120   -2.20939070962107
H           9.34746840564584   -4.60484750464325   -0.82664001628391
H          10.98316487319880   -3.27422165615377   -4.15475256653477
H           9.25986936894563   -2.87364631697583   -4.19069932515632
H           9.85218635976315   -4.32219943245592   -5.00329638651665
H          11.07030798909535   -6.04121235868842   -3.47959832544724
H           9.35975556821617   -6.35733591833270   -3.79176051454265
H           9.17978309964739   -7.37501447303364   -1.77953126635240
H          10.76553703210225   -7.54648392532424   -0.14029867635042
H          12.02928752971868   -5.08959919000332   -1.49013819835061
H          12.92879205494084   -6.85335146662959    0.86438718078628
H          15.19149354037765   -5.95642819420390    1.89156665327352
H          16.77957363171289   -3.93180576912123    1.70259634516100
H          18.08051408584252   -2.10752456917960    0.67735579498190
H          18.74156054695173    0.07894967677795   -0.51570184490029
H          17.83668676757214    1.89477186546539   -1.85685740657070
H          16.28739141395015    3.21127215340381   -2.92124787661321
H          11.34973863424186    4.38744191595281   -4.12008791600368
H           8.97371017616865   -0.62137526326526   -4.39382242361147
H           6.89655872559295    3.01989317916505   -5.19115683546300
H           8.95824151476035    4.31347784898382   -4.73613327440206
H          11.37656206321783   -0.59310718382385   -3.87232829208145
