105
 SCF done       -174.850362655699          0.000371204968
C           6.20844837626271    1.51910509642137   -1.98787242553545
C           4.93073609720272    2.32115885449121   -2.05718409768259
C           4.73152055576572    2.84801751472154   -0.60015725500719
C           5.96304403601168    2.71466237300371    0.30258889513330
C           6.56741647280393    3.82066992292445    0.73646130494951
O           6.44582698117443    1.54374635485766    0.85337412252037
C           6.66209875403327    0.29329627558005    0.15051772846177
C           5.75301682815850    0.37786552722064   -1.05253536538336
C           5.19823028892754   -0.63713309035184   -1.99668050597063
C           4.25743574269529   -0.08912574231661   -2.76272269381953
C           3.81013020610484    1.35347161216310   -2.57675103824580
C           3.19244331937390    1.88034192524475   -3.87125563294061
C           6.29257468639650   -0.87284207353946    1.06904564195977
C           7.19178798789543   -1.03963747152867    2.29274007272916
C           6.96424757503345    0.08030638473557    3.31014964045766
C           7.82137615178735   -0.05604579504548    4.52231575559512
O           8.20856374932045   -1.30131980101073    4.90329748654030
C           8.97009497566798   -1.21912571234161    5.97649994672676
C           9.11111138714076    0.10324960118250    6.34691210103844
N           9.85424561021696    0.58921265610180    7.42639823903031
O          10.38445415562890   -0.21477723103520    8.16727527589962
O           9.93064526331552    1.80660257230062    7.56439135074435
C           8.35119179796755    0.87445090003598    5.39681147555224
N           8.26501295995289    2.23520471125646    5.45097281776573
C           7.43299523133837    3.04779616806206    4.72827548390401
C           7.53297112629442    4.38349088491843    4.70866672459460
C           8.59704882787637    5.12977005177354    5.46649477810829
C           6.58620515254268    5.18726311249820    3.86627302214621
N           5.84220610580780    6.14859468334097    4.65623921192054
C           4.66939251807246    6.68852463899190    4.31009018665271
C           3.88029578102607    6.30382285289989    3.25957904226478
C           2.67872629145901    6.94336682205146    2.93908813161797
C           1.80426222501849    6.50451014807971    1.97075879305423
C           0.61834923343538    7.12666543639251    1.52927906901343
C          -0.06195307418549    6.42492997226642    0.57452224352721
C           0.54037943806811    5.19696629614446    0.23644231414345
S           2.02503770492015    4.97968586047244    1.11819440290959
C           0.06578327116589    4.21880284459098   -0.63009127700434
C          -1.04301367929319    4.26604242015779   -1.48839865825991
C          -1.24227413356066    3.10843952326957   -2.19563954451912
C          -0.31841653984816    2.08946543604228   -1.90429482256876
S           0.84838086693662    2.65810455448134   -0.73567612235885
C          -0.28351640576209    0.80157799175187   -2.42670376353365
C           0.60211569905100   -0.15356177279945   -1.96618596726157
C           0.76441481371892   -1.43646136314892   -2.46897809956045
C           1.69495533761810   -2.41518970512324   -1.99343861129345
C           2.58173250512169   -2.28856893566244   -0.94331977796606
C           3.52135439992763   -3.26505539600415   -0.57054272448178
N           4.33045017138287   -4.00050457551944   -0.21331012489949
C           2.72011012956496   -1.16572294628862   -0.11197689548862
N           2.92120814589310   -0.30319437203431    0.62470838818722
C           1.56223942627736   -3.60284146947028   -2.83607774981913
C           0.56209747186574   -3.35642836070093   -3.80709003129954
C           0.02901068738067   -1.98636485767222   -3.61346273147414
O          -0.83461878702365   -1.45151736853685   -4.28534804820035
C           0.19986063881446   -4.28625664342584   -4.74784325351257
C           0.85722611754737   -5.52296468951973   -4.73083574414023
C           1.85380013888658   -5.75891748584574   -3.75829533140297
C           2.22048453933528   -4.81576155835982   -2.80418311522787
S           2.53688521587821   -7.35075849872176   -3.91597771654636
C           1.48574045995659   -7.67022933251508   -5.26965819062061
C           0.66600063259311   -6.64177201198474   -5.58833094289780
Br          1.57000511261714   -9.33421498348316   -6.13482473541806
H           7.03293616960421    2.10618626115637   -1.58323782500273
H           6.51999752813655    1.12853302101202   -2.95751344495389
H           5.00731553797764    3.17138399099453   -2.73882260069942
H           3.88405710176645    2.36022257182731   -0.11284722117185
H           4.49435806800919    3.91166835499159   -0.63497292555292
H           6.21496065838559    4.79986055715281    0.47193910580574
H           7.42946514134761    3.76162373711245    1.37774032471083
H           7.73057358052737    0.24761190013222   -0.10956912392745
H           4.83761475625345    0.69242530130929   -0.54404456828472
H           5.54129537609968   -1.65550937902973   -2.07455679662028
H           3.74922201487361   -0.64537975966759   -3.53675142630158
H           3.01346903569853    1.33719485288919   -1.82347098896475
H           3.93623363220309    1.91134800457477   -4.66488298757875
H           2.79945001539093    2.88413571416443   -3.72358806041226
H           2.37295370105447    1.23956809112400   -4.19073583534018
H           5.25821666543288   -0.74139213750721    1.39197118319477
H           6.34047286889992   -1.78266450434066    0.46797773048472
H           8.23904863778680   -1.04386066517759    1.98330658492525
H           6.97439549755106   -2.00281888105556    2.75656593524069
H           5.90766086138721    0.07736365818056    3.59772650831370
H           7.17529081920408    1.03157393556219    2.82403063622797
H           9.37533813054552   -2.11333590173199    6.40538731605745
H           8.87001131126543    2.65857404838907    6.14906883584753
H           6.67053047579063    2.54412852883739    4.15683098734822
H           9.57410036568883    4.67557839579744    5.30782527591354
H           8.40382805204597    5.12092630122193    6.54027652619160
H           8.65421254929171    6.16386560851368    5.13454689958962
H           5.88854636690936    4.52022808727045    3.35954322202402
H           7.15207201038823    5.73295556144701    3.09578894678796
H           6.32979001113757    6.52330248250006    5.45509529586259
H           4.32562647298432    7.48864097954079    4.95415545978394
H           4.16891829409937    5.46684206330660    2.64134434848060
H           2.41134124917054    7.84550429305770    3.47461410707583
H           0.29976318893133    8.07469663150908    1.92617370947730
H          -0.98624183987589    6.74658664249969    0.12970920215104
H          -1.66212286343933    5.14095586216553   -1.57765807066849
H          -2.03859213060181    2.95829438983104   -2.90262845396318
H          -0.98086508645048    0.54958033615559   -3.21176942455220
H           1.22490990403856    0.13044508903014   -1.12738508957897
H          -0.56670662016849   -4.07087879713927   -5.47573072584255
H           2.98615858217834   -5.04396137992717   -2.08159169750535
H          -0.04504284753139   -6.66791258117745   -6.39389152659378
