114
 SCF done       -177.766237489895          0.000476567989
C          -0.62499646824142   -0.41674138685541    1.27057360061156
C          -0.07750974989457   -1.67030666398640    1.90778151553663
C           1.00857092698968   -1.14782768239494    2.90360701156296
C           0.99268015533640    0.36773214979912    3.16485972567149
C           0.67739117437798    0.81336148757511    4.37796980848811
O           1.44661654771355    1.33104815602203    2.27693559430224
C           0.96620839537717    1.47125955800249    0.92110827293829
C           0.62535495192868    0.06007789342594    0.49916503457600
C           0.50185911751025   -0.63254161007331   -0.81907101559385
C           0.38151786644123   -1.94531524012682   -0.64089617456741
C           0.44130655858570   -2.58540497680352    0.74087557472708
C          -0.32705192434965   -3.90778513690849    0.72430763729861
C           2.08148249879616    2.10840540079873    0.09785485764179
C           2.40861822765733    3.52066557446465    0.57312514818720
C           3.47163552408555    4.19049809270022   -0.30919324943020
C           4.80655880171478    3.51923576734766   -0.20917114861470
C           5.74449109687368    3.77479299804889    0.73393276206598
O           6.97654275019180    3.12293276032842    0.76494556657263
C           7.15263849440481    2.18250933853367   -0.20100177244788
C           6.15457998044509    1.90752112472249   -1.18245274830465
C           6.52045735289490    0.93469681532658   -2.05219446397939
S           8.09746588502689    0.33646874116778   -1.69171382251275
C           8.25761203573830    1.41285040704611   -0.35072208734753
O           4.97071072351449    2.58466092237815   -1.20836281826592
C           5.58632599336561    4.74805732031940    1.77261992644960
C           6.55807134767421    5.05426821251426    2.66017665387363
C           6.43214715283576    6.04815335237441    3.66363351379738
S           4.96514413900008    6.95318385366396    3.90933402468422
C           5.68522124120569    7.92303848100812    5.17679531886401
C           6.99331570138187    7.52157492193468    5.39710783592932
C           7.41072818530881    6.48367770513453    4.53873310591201
S           9.03127736412472    5.77437872681896    4.54903756959546
C           9.97715573373182    7.20613107359341    3.88745859324643
C          11.45999217653548    6.90382258382869    3.94341850638095
S           8.04706100485349    8.20007291755274    6.64475381302329
C           8.15108553305762    6.75440819289971    7.77478442828847
C           9.25438853209853    6.98267733437126    8.78641805335831
C           4.86601578773322    8.90531996486318    5.78740074788422
C           5.28029861546348    9.92976053634656    6.57937129363043
C           4.43313215476633   10.88391195813292    7.20002316012119
C           3.07380696577505   10.84598323895258    7.25537660984157
C           2.26592349537823   11.82175787452450    7.87521215638404
S           2.94903857086774   13.27011793456158    8.61256778690049
C           1.38437564819195   13.81378686348097    9.05544960767399
C           0.38570815793928   12.91305261395622    8.65449434253638
C           0.87848038761054   11.80037339616504    7.99277522241374
C          -0.90455838676125   13.47457067783777    9.08695701534108
O          -2.01716356479826   13.02393526627859    8.94599259951602
C          -0.54239876425900   14.77825545483105    9.76386984521853
C           0.83504208507770   14.93046318097899    9.71641692275279
C          -1.53447400837939   15.59918256851533   10.30533187909273
C          -1.32760924494222   16.81769021471432   10.91195132783640
C          -2.35244224049112   17.59515475677259   11.44082695335973
C          -2.17386292160021   18.83023803835273   12.03196857174692
C          -3.17243678783615   19.65623821435470   12.59186884885209
C          -2.70933372436624   20.83304770002384   13.10211740751001
C          -1.31314253739810   21.00303415804102   12.96907877669982
S          -0.60824748808615   19.60792817225649   12.17857901179603
C          -0.54837977783848   22.07941509266190   13.36777766930604
C          -0.99544575267188   23.26102758770906   14.01708508343181
C          -0.01626435666930   24.15641176123024   14.28273622820728
C           1.29044198493731   23.74713216038075   13.85844555203814
S           1.18150247020148   22.14722692841165   13.10711588476489
C           2.44370013679482   24.42065248997772   13.97936312009313
H          -0.96522325335767    0.29767740133433    2.02010079997135
H          -1.45389492483361   -0.61091097459265    0.58870508048605
H          -0.83812439887951   -2.21777666137761    2.46889593385060
H           2.01291988231633   -1.43522043402413    2.58101252149778
H           0.85151933908520   -1.61877950020959    3.87424153599484
H           0.43069791072072    0.14763244845212    5.18377859767105
H           0.69116395180706    1.86617568149680    4.59729546079769
H           0.08843573769876    2.13586909288956    0.93351396790857
H           1.49915794365162   -0.45580708765604    0.90735892763543
H           0.47357244836363   -0.13651556178813   -1.77442775998386
H           0.25205090721256   -2.62585498573066   -1.46862292690647
H           1.49703427684459   -2.82378346732248    0.93195692661651
H          -1.38220544253610   -3.72941669540187    0.52775209358554
H          -0.23375840026432   -4.41642051314538    1.68135621775858
H           0.06020860819058   -4.56626985531315   -0.05023535864984
H           2.96905327229153    1.47799037646894    0.16673295382110
H           1.76136617594069    2.13298102220151   -0.94576248883638
H           2.75233618984023    3.47762453544045    1.60684228867253
H           1.50160427025295    4.12797104720454    0.54226681300977
H           3.56108958663328    5.24272044670040   -0.04137318209922
H           3.15547971926278    4.12555715584705   -1.35241137187681
H           5.96276573517875    0.54105343306249   -2.87579732308178
H           9.14829269579522    1.41381870348414    0.24145160553202
H           4.63699922448087    5.25706852454294    1.82744874139164
H           7.50935192460173    4.54303684602332    2.61922884084206
H           9.72409514055242    8.07283378389771    4.49689107239858
H           9.63825383546587    7.36168052435230    2.86234575966240
H          11.77498862567612    6.73798924069710    4.97117098653735
H          12.02128062544377    7.74229631089149    3.53639804675971
H          11.69145408257839    6.01276012144699    3.36364917101152
H           8.34664286550263    5.87429061652632    7.16413720094346
H           7.17704516371322    6.66391671864996    8.25721895383291
H          10.21555997842113    7.07028841593787    8.28516764685604
H           9.29612329713118    6.14511670724576    9.47944326555695
H           9.07426324206552    7.89537725784542    9.35064797284744
H           3.81552593140369    8.81569134555709    5.54368524004396
H           6.33936603911460   10.05818349324207    6.74534805689202
H           4.93067786578988   11.71356705657252    7.68743643916787
H           2.53483141671781   10.01804510910893    6.81519151591589
H           0.27600452925242   10.99784408514133    7.60674981429539
H           1.40025101843749   15.75300174673523   10.11373459310306
H          -2.54725757240460   15.22342146624806   10.22192311606796
H          -0.31982803018041   17.20564568769534   10.98468051384659
H          -3.36589782409707   17.21773210890907   11.39052853924311
H          -4.20570744480740   19.35604447364560   12.60135764936327
H          -3.33222550218876   21.57779901149537   13.56401104591822
H          -2.03189698190712   23.40555634539800   14.26587923115631
H          -0.16409632076701   25.10488296282472   14.76775261245551
H           2.46566060238759   25.39163541291905   14.44171435574697
H           3.37394010358474   24.01881104756960   13.62201052736901
