85
 SCF done       -149.808099323045          0.000200959174
C          -6.09862527042392    1.28668443360543   -0.63477994031190
S          -4.57534085806981    0.52596136817180   -0.63782617654069
C          -5.20246116121951   -0.94461282326542    0.05924426677241
C          -6.58475450139916   -0.81324117858925    0.27462395098436
C          -7.08838611481225    0.46772221985011   -0.13122559541079
C          -8.45981076901076    0.77277287679883   -0.00657613631051
C          -9.33199088951291   -0.16319419327727    0.49106725824393
C         -10.76261221142221    0.07507164700147    0.63875882645748
C         -11.44671623722930    1.10498704747534    0.15500526796140
C          -8.82459921775559   -1.43565752112706    0.87317792100025
C          -7.50493530768694   -1.75961131523149    0.76946849100185
C          -4.35355322316608   -2.03111816648809    0.36532638899225
S          -4.81686339717319   -3.19082690336605    1.57082727184185
C          -3.36584678656337   -4.13603240387989    1.39551459291490
C          -2.52412386988698   -3.53565084770878    0.44038348867955
C          -3.07591316853747   -2.35160853945097   -0.13925263041126
C          -2.36228487470499   -1.67666093337352   -1.14082876933574
C          -1.11316084645552   -2.10865416747057   -1.53058772167981
C          -0.33612746862153   -1.43614454959300   -2.56325467482741
C          -0.58782774072702   -0.24247064552821   -3.08830336169192
C          -0.55715508360902   -3.25036396855842   -0.90385137506672
C          -1.23751090317010   -3.95072445043831    0.04849849070506
C          -3.22990283457256   -5.36619500330428    2.06322871753452
S          -2.19523638980749   -6.61031115657948    1.43565363060546
C          -2.72885654116386   -7.78327778068625    2.59470280601292
C          -3.65476933082114   -7.21183262538664    3.48601319226428
C          -3.93622025678473   -5.84439051023219    3.19124478039771
C          -4.80298615865724   -5.12209100934970    4.02128658447364
C          -5.41883786397182   -5.73009438275954    5.09543314967631
C          -6.33217832978396   -5.01736887277016    5.97837903582778
C          -6.89628793604351   -3.83883841104779    5.73922504960824
C          -5.14199709612010   -7.09241710880915    5.36223091672472
C          -4.28279041562480   -7.81887109423051    4.58990797517888
C          -2.29583903370533   -9.12484393886915    2.52333513853521
O          -2.85162022992625  -10.04732026214985    3.33922065368047
C          -2.34877385442415  -11.27382476037492    3.02833233762675
C          -1.42784468253922  -11.13745691405664    2.00228799970820
C          -1.38489430284675   -9.77449345294769    1.68022536938695
C          -0.50741068341967   -9.19079960730309    0.63703185578813
F          -1.18455488979621   -8.68851905937912   -0.41687366844629
F           0.26576199654706   -8.18256225623558    1.09138537806538
F           0.33594753125967  -10.10145256578434    0.13018919418566
C          -2.82923675672991  -12.39992534916693    3.73132641544486
C          -2.54613103776879  -13.69327539701094    3.40121504475927
C          -3.06780243557756  -14.80065627922102    4.08435078955165
C          -2.89537993128391  -16.10506263927775    3.69293579171327
C          -3.41880362793629  -17.26010566026855    4.32615378609014
C          -3.13261307053342  -18.42819914217060    3.69194386128800
C          -2.36359290413538  -18.26950328497857    2.51304520254400
S          -2.00094257368506  -16.57317113456800    2.25459989231795
C          -1.94539467345572  -19.24628763921545    1.64023881916280
C          -2.19232894905404  -20.64469864877544    1.72621523585661
C          -1.67406972670643  -21.36659654231165    0.70797632282907
C          -0.96953817952115  -20.58983009069441   -0.27120153699719
S          -1.01214720587832  -18.88364583918890    0.20175078395947
C          -0.36125998065093  -21.02621123666287   -1.38271099484042
H          -6.19513515244181    2.28599966750672   -1.00911528502646
H          -8.79715531435465    1.75120545576952   -0.31045543565453
H         -11.29225512226145   -0.69265412506479    1.18992841687334
H         -10.98671357744385    1.89210920217081   -0.41762381932310
H         -12.50801247136888    1.19452547574492    0.31094341719008
H          -9.52118620159123   -2.17156391997403    1.24830050543865
H          -7.17182682833822   -2.74486778756260    1.05301289413107
H          -2.80496624027532   -0.82206409153755   -1.62284689050742
H           0.53504665485489   -1.98461240861185   -2.90001229318464
H          -1.42220098459290    0.36498637112529   -2.78146099122400
H           0.04798132375791    0.17885417719756   -3.84782511261637
H           0.43196133609193   -3.57159482401445   -1.19526290210542
H          -0.78555740436121   -4.81476942560581    0.50774634259315
H          -4.96291133838244   -4.07282437341533    3.83944366788927
H          -6.56896495452386   -5.53641774886909    6.89929919904906
H          -6.72426080206124   -3.28446851629529    4.83227640076999
H          -7.56703786570822   -3.38585357448326    6.44889394493543
H          -5.62177169866420   -7.55975751559294    6.21027314686107
H          -4.07088457012296   -8.84899891397572    4.82152303762000
H          -0.85028088804295  -11.91280053631712    1.54409620952478
H          -3.49784264321671  -12.19143667697723    4.55513242278502
H          -1.90949076455825  -13.89364341315691    2.55020109571281
H          -3.66947240785036  -14.62357373234846    4.96636133028290
H          -3.99620193569302  -17.18493564860644    5.23105689390031
H          -3.45465808537764  -19.39592169348027    4.03256797208018
H          -2.75097450495370  -21.06477743553020    2.54386759423366
H          -1.76155841414265  -22.43338852775850    0.60204496178941
H          -0.36048330482264  -22.07230998425610   -1.63329818933214
H           0.14027641681326  -20.35374280582074   -2.05401787912606
