90
 SCF done       -161.685223969327          0.000527391834
C          -6.41032816585637    5.29327587202200   -3.85950084356139
C          -5.04572840684426    5.09496673606309   -3.85974501745242
C          -4.10737065060029    6.12263952466230   -3.56876827006872
N          -2.81043820563711    5.70432248769948   -3.60226913087148
C          -2.70863363843891    4.46556245962977   -3.88373055193439
S          -4.19838081090323    3.60548075593064   -4.16870904695514
C          -4.54116342200620    7.42654401706531   -3.25473727162245
C          -5.92711761190162    7.60723797046909   -3.26642718537171
C          -6.85343847176831    6.57501102298573   -3.55528316049692
N          -8.16173201755532    6.96085128020833   -3.49947540032905
C          -8.27485280358088    8.19210669218865   -3.19705242055005
S          -6.79173365274411    9.07619634579790   -2.93283738022022
C          -3.67832484503951    8.50814255900976   -2.88883727990095
C          -2.32785848390710    8.45729866766713   -2.83820508999015
C          -1.51763887312983    9.51572645233566   -2.36863025114444
S          -2.18976481496085   10.99294809961134   -1.77055052620355
C          -0.65605131865307   11.60612481433870   -1.26819178985811
C           0.36677633453193   10.70405847369605   -1.59226219212234
C          -0.12279257364823    9.51806950372147   -2.22452525403988
C           0.77650730880239    8.50653944703210   -2.61339108578938
C           2.10854081925170    8.68168210456714   -2.37426397465489
F           2.98800102956508    7.72705885780774   -2.73423309264122
C           2.59234904245230    9.84909693235483   -1.74116153167634
F           3.91600086164520    9.96754902945751   -1.51780183359639
C           1.74747557918926   10.84674530748089   -1.35282460607322
C          -0.53558523068819   12.83728316264856   -0.56863643593293
C          -1.58211434807752   13.63986399385274   -0.28425155090926
C          -1.57144669539544   14.85455963695182    0.48529971883142
C          -0.81779739703599   15.14943312836509    1.55212536176965
C           0.20487742697543   14.23573812404935    2.15384278626097
C          -1.00221663967677   16.43005320177840    2.34631766226283
N          -1.89691075235454   17.41022622908408    1.79378829768977
C          -3.22018898991139   17.15434203368900    1.64346685906363
C          -4.09855173611955   17.97404657264364    1.01295224210900
C          -5.46284828845598   17.67387976412603    0.78631373710703
C          -6.05643937261227   16.44154301207305    0.74138342131426
C          -7.43253436412847   16.19607689005902    0.49692882137707
C          -7.76594949785560   14.88346560719073    0.37805663594029
C          -6.67533504509315   13.99273127997959    0.51441372766319
S          -5.20936462878165   14.89247588183747    0.84190777549534
C          -6.68864941666318   12.61800670577657    0.41488273039084
C          -7.82089097328318   11.78715065164972    0.26104758237916
C          -7.52101133391940   10.46407214942358    0.21273840734300
C          -6.13275824206896   10.15620798840635    0.31012772064300
S          -5.22551319250044   11.64455405149395    0.48454230917791
C          -5.67743947023094    8.86918398062271    0.21926365012594
C          -4.39305723569139    8.25667066284476    0.22959235173161
C          -3.16365227079696    8.83489741552219    0.56031259062360
O          -3.18471285239799   10.16380657946135    0.88381052544635
C          -2.40658356458091   10.65302451637049    1.95346465967819
C          -1.94674670387009    8.09142588026050    0.49968616542669
O          -0.81253254783780    8.79586110397497    0.79706229154339
C           0.40131401014015    8.09410527625470    0.91320549854641
C          -1.92819617947858    6.75881604496414    0.15491538233453
C          -3.14159483476658    6.13086097957878   -0.14640844478032
C          -4.36925681075071    6.87165749173398   -0.11211641426361
N          -5.42001930477457    6.11565959209569   -0.41081460577668
S          -4.91050884570567    4.61095891944577   -0.69911549720220
N          -3.33054415652594    4.85143529204841   -0.47001363010644
H          -7.11066493127016    4.50423881221411   -4.07193693117467
H          -1.77099012435082    3.94999158612588   -3.95187383630584
H          -9.21731002147883    8.69583449876127   -3.10205564621426
H          -4.18212748149081    9.42487178901950   -2.60409955602995
H          -1.82952812689342    7.54541744755828   -3.13119924859583
H           0.42942852067268    7.60728844489771   -3.09598631717150
H           2.14721986375131   11.72710887983319   -0.87674088806676
H           0.46523515309353   13.12006634655921   -0.27903223749887
H          -2.55538183948770   13.36352860494281   -0.67225289074019
H          -2.33854925997364   15.55813030756184    0.18760644401733
H          -0.03504575066426   13.19712760487979    1.94075968629515
H           0.24795046851003   14.37443525391596    3.23285587620434
H           1.19630784364332   14.45033332454748    1.75416692906280
H          -0.02565785208324   16.90220338669920    2.49219966205453
H          -1.37839487642487   16.14829755028272    3.33956431945272
H          -1.49819992539079   18.11641765370297    1.19397107176301
H          -3.56520218320236   16.26072938049918    2.14171122128239
H          -3.74768874318953   18.93425292809723    0.65603085120884
H          -6.10843041616364   18.51219440260241    0.55487582894368
H          -8.13175185450826   17.00932137339391    0.40627090967677
H          -8.76012734378606   14.53013875812653    0.17065319106488
H          -8.81914097474125   12.18352632554305    0.20241905914443
H          -8.25086065682354    9.68040097144511    0.10557518034406
H          -6.46381052549623    8.13783382899172    0.06464881541936
H          -1.38189762828445   10.86607930249617    1.64015729451068
H          -2.39172706902375    9.95276872954069    2.79250032206520
H          -2.89295780717207   11.58115702321274    2.25727575753290
H           0.34044977090291    7.31800288017517    1.68199214565725
H           1.14120699182472    8.83803957986386    1.20436392111740
H           0.69967459562701    7.64389202066943   -0.03727452990563
H          -1.02012053917346    6.18537179017154    0.10216544898316
