107
 SCF done       -178.455357681972          0.000706661041
C          -5.14397783768969   -6.49333962634466   -0.16957288775428
S          -6.84818664843548   -6.66372435125044    0.08171320123040
C          -7.17266579114664   -5.54118549489100   -1.19437854848102
C          -8.32487857520869   -4.98576667003905   -1.76982330742414
C          -8.00376313780691   -4.10159773403155   -2.76996259012997
C          -8.84223150316611   -3.27183899238360   -3.64488057724203
O          -8.36504505842093   -2.52965178534118   -4.46058267828945
O         -10.17202912411731   -3.38076847945222   -3.48724437235380
S          -6.28806452601620   -3.93668270864420   -3.02342290916205
C          -5.99211525859320   -5.07803139568391   -1.76449430082374
C          -4.81872546885843   -5.62605847753826   -1.17820545916687
N          -3.58303059186228   -5.24018767305473   -1.64618172343749
C          -2.33696615515994   -5.55015946253584   -1.21532345923454
S          -2.02551060760361   -6.71529331162629    0.02576771486143
C          -0.31640273918825   -6.51095960751229   -0.21864439735187
N           0.53955536443637   -7.25904642188455    0.58230312065314
O           1.74027522474424   -7.13835243288506    0.40699205677572
O           0.01696358743434   -7.99254224080106    1.41008058161895
C          -0.02318943803993   -5.60324329407061   -1.20297634173843
C          -1.16551448754531   -5.02253342644707   -1.77672778730369
C          -1.08301675698890   -4.03727908401821   -2.83472029764296
C          -1.97069269337093   -3.06965045037141   -3.11657907628893
C          -1.87936627291666   -2.12243385142131   -4.21037513540699
C          -0.70398747038067   -1.92654123895129   -4.94901631902727
C          -0.69323360001867   -1.01613134642222   -5.97577008521141
C          -1.84915279332800   -0.28597368714123   -6.30589286597416
C          -3.01837760062397   -0.47074588608894   -5.58209121192592
C          -3.01873275529651   -1.37692772705792   -4.54049509574116
C          -1.53998317701038    0.58766131389597   -7.41622656591711
C          -0.18976676328836    0.40593883068359   -7.76557918265100
C           0.45653577500101   -0.63086162104189   -6.87655926310024
C           0.96273517080069   -1.83428833904124   -7.69298478006842
C          -0.13449339933296   -2.48808596542883   -8.52427106071332
C           1.62131976437183   -0.02997731805192   -6.06774350663204
C           1.19923371771656    1.16623582193609   -5.22326104913060
C           0.36911106817054    1.12680980835950   -8.78848808001895
C          -0.41024805854067    2.05492294864598   -9.50523347027251
C          -1.75895707817810    2.21695936178663   -9.14632513278276
C          -2.32351176434181    1.49754102073938   -8.11452598464753
C           0.21671623128963    2.79619386674855  -10.56066859433540
C          -0.36158407555328    3.69484550071379  -11.40201959178109
C           0.36324560847461    4.37728595901402  -12.39507407170157
C          -0.16320812175615    5.28092209322636  -13.28286890311777
C           0.54653495800802    5.99139241535469  -14.28126802202025
C          -0.22434019589028    6.82371524260839  -15.03447664122577
C          -1.59070775440291    6.81999389104517  -14.67955621522288
S          -1.86453292605519    5.72235465565619  -13.34203904416841
C          -2.61136900202938    7.54309625962628  -15.26880225370224
C          -2.50307357011428    8.45636502178250  -16.34171364693480
C          -3.68537764387922    9.00775541902170  -16.73093535177300
C          -4.80852449268965    8.57068131459221  -15.98856073618617
S          -4.27509279957663    7.42796328604932  -14.75056895712237
C          -6.13428131805993    8.90923313039427  -16.06994927728049
C          -6.78702921480502    9.72236578337043  -17.02566860644647
C          -6.36047531677790   10.22511343450319  -18.25330266749024
C          -7.41687135939783   10.97763069970718  -18.83183953895797
C          -7.50571241908527   11.66401302041018  -20.01958581586443
C          -8.71378641115639   12.32702743782393  -20.30525353915661
C          -9.10819843752942   13.09150019281541  -21.38898471164933
C         -10.45348846084526   13.54422652866552  -21.17794122815977
C         -10.88415843375819   13.05427274337257  -19.96226656760737
C          -9.82918201231748   12.28394499280710  -19.37407337710610
C          -9.74851378146550   11.59759373850977  -18.19565381866787
C          -8.53581363180608   10.92893278924174  -17.90635058034161
C          -8.14844127818382   10.15961341447485  -16.83217718376571
C         -11.23529711248765   14.36851132824157  -22.06704763665505
C         -10.82215627731909   14.86274373351443  -23.23116972437967
H          -4.48992655518988   -7.05675944902087    0.46267641870975
H          -9.32179013146708   -5.23356755594488   -1.44966752364073
H         -10.42381767010033   -4.01086925686772   -2.80079233356668
H          -3.60880425558467   -4.66553754965509   -2.48148089629050
H           0.98696285420988   -5.35850738309020   -1.47768143309690
H          -0.17906158557887   -4.11323753350555   -3.42279788411617
H          -2.84203197127908   -2.92733906069541   -2.48852887068760
H           0.19278850105897   -2.47181106700120   -4.69755206391712
H          -3.91240812997400    0.08407891569120   -5.82256950585877
H          -3.92605350807023   -1.52687211945634   -3.97141829956831
H           1.38577615601270   -2.57106646504486   -7.00641620750690
H           1.76411463752970   -1.49598758076330   -8.35326740006456
H          -0.93794654272836   -2.84820789472183   -7.88527351749743
H           0.26885584978330   -3.33165969904478   -9.08002074844045
H          -0.55345581930861   -1.77719246581779   -9.23289428704013
H           2.40724331774984    0.27565299417820   -6.76164684010474
H           2.03358085903670   -0.80489763762825   -5.41769888549218
H           0.80084683631212    1.95868519659479   -5.85286998796805
H           2.05330363362386    1.55756726949316   -4.67526717050905
H           0.43226399883411    0.87966204774438   -4.50699788768415
H           1.40771227324143    0.99215625943689   -9.05704121659011
H          -2.36708877230029    2.92597308150916   -9.68612162283525
H          -3.36149193576027    1.64119290997447   -7.85328971364699
H           1.27607031507793    2.60570639026426  -10.69138560184629
H          -1.41779836953716    3.91694494476809  -11.33447628457886
H           1.42565644409185    4.18183893333732  -12.47130011526861
H           1.60718835609644    5.86320390958929  -14.40854931075349
H           0.15261863690624    7.43588120438006  -15.83402191776385
H          -1.55558320144165    8.68709451837351  -16.79507439153272
H          -3.76991773847687    9.74264857849489  -17.50867608739626
H          -6.77568950300715    8.50344240524083  -15.29699802979330
H          -5.41699212305727   10.05020770110695  -18.73266472885497
H          -6.68014174002457   11.70277499781649  -20.71650771054559
H          -8.50838522173895   13.31237846043624  -22.25291778844417
H         -11.84860062616156   13.21765898411452  -19.51674861667660
H         -10.57390531754831   11.55709072831823  -17.49835244162768
H          -8.74298084225340    9.92155356743257  -15.96783949977440
H         -12.23916428610385   14.58434306116493  -21.72229989661849
H          -9.83385646980522   14.67782036217926  -23.61531814402941
H         -11.46279364389592   15.47331839867041  -23.84346242634474
