80
 SCF done       -165.477747539123          0.000726209369
C          -2.36743080047047   -4.00186690519525    6.11049396017850
C          -2.51225051530783   -3.84298553845862    4.75754528107569
F          -3.59436330886330   -4.33858681364413    4.13879474753321
C          -1.56133918007614   -3.17208191674088    3.97067429847851
F          -1.78213334066186   -3.05812296622234    2.63733340011074
C          -0.39571827952702   -2.61094499673917    4.48084571677058
C          -0.23587564124105   -2.76100931639387    5.87307471149842
C          -1.20957186778507   -3.44939406189966    6.66706178252442
N          -0.77256481299100   -3.42150409161695    7.93528740811991
N           0.35499711766451   -2.77235255670552    7.88114001100889
N           0.72892390572921   -2.35399944608986    6.70732929443635
C           1.15070600530515   -2.51707935827853    9.04152772100469
N           0.45138944951457   -1.97470384900097    3.60588171950962
C           1.67084312853656   -1.39341569717885    3.74062628722241
S           2.58028347743524   -1.35597591508876    5.20675627143220
C           3.85309264584447   -0.50919271173767    4.37825806508466
N           4.97714674170841   -0.16374602020014    5.12506463177632
O           5.88211836986432    0.43122142893633    4.56538641570195
O           4.97155715377817   -0.48938326357760    6.30415993180508
C           3.58562798416612   -0.26627089484312    3.06010047842269
C           2.33158954143718   -0.76856417038003    2.65938590933254
C           1.79737895604750   -0.66453081808876    1.33588631108684
C           2.40214023992577   -0.02544000504765    0.29899287456017
C           1.84290988237864    0.03702202283294   -0.99213919763979
C           2.41379172143402    0.67341358459396   -2.06380712600078
C           3.62935628704121    1.40176839717683   -2.14302843687680
C           3.90110236368547    1.90734523896585   -3.37510442292450
C           2.92034465961842    1.61134779007036   -4.35188254666904
S           1.63036263184300    0.66530615708085   -3.63840316813431
C           2.92106218370205    1.97183105894313   -5.68142412666495
C           3.89382282126315    2.72991631171744   -6.37672485061778
C           3.62466648859043    2.91172763311097   -7.69666470939991
C           2.41467823137674    2.30627701722233   -8.13073274020732
S           1.63274431288110    1.49312351254290   -6.77127215369843
C           1.90988454643972    2.31916895458940   -9.39309600094082
N           0.71443731685593    1.75841345728004   -9.73444079596937
C           0.25579233794071    1.55004604700892  -10.99509838807115
S          -1.45855681599261    1.51569546523029  -11.28070106008759
C          -1.15530176507497    1.31338604242068  -12.98009618733028
N          -2.26302513251250    1.17843393065355  -13.81741168162875
O          -2.06227888590787    1.03454449402141  -15.01054781069797
O          -3.36099578232716    1.21562088810456  -13.28203423975963
C           0.17751648188950    1.27747139784887  -13.29497295341402
C           1.01042103850263    1.39337465972987  -12.16755485642741
C           2.44047606937772    1.22885548725483  -12.15934796308285
C           3.25779492239235    1.35957576933734  -13.21751205889495
C           4.68242433365163    1.15886182139814  -13.12623364756989
C           5.49732638941956    1.24958267145390  -14.24429673913643
F           4.94137207470573    1.52418234078019  -15.43880277302022
C           6.89460398737737    1.06623747433414  -14.20581332074651
F           7.57313230182014    1.17725311017205  -15.35988772700553
C           7.57112697026983    0.78398998544199  -13.05009136046016
C           6.79001642799889    0.68676659370940  -11.89316610851470
C           5.37203092840361    0.87009833854080  -11.92243720315943
N           4.93225459124811    0.72020309873938  -10.66273836316698
N           6.00894606753716    0.46628847938523   -9.96798222875193
N           7.13482988930548    0.43173811056662  -10.62136279197367
C           5.95196322461166    0.22165954526623   -8.55979038948161
H          -3.10092687014416   -4.51610871646372    6.70478733718920
H           0.63869736252272   -1.81169649991169    9.69722674725385
H           2.09915960816751   -2.09742434028081    8.71322396609182
H           1.31068269772661   -3.44677073301149    9.58617513107596
H           0.09320038794953   -1.95766393606742    2.65565140461280
H           4.27702124171209    0.25122719346725    2.42216670895249
H           0.83948838030617   -1.12820687014383    1.13530431321914
H           3.35290594482722    0.45909350469645    0.45609659000967
H           0.89414673605592   -0.45797078052630   -1.15201446009795
H           4.26914283160320    1.53503613036341   -1.28973460576838
H           4.77787452426737    2.48409602682135   -3.60960557395958
H           4.76257679248914    3.12040584018750   -5.87783347885118
H           4.24417217576718    3.46457217998602   -8.38038504819429
H           2.45817348069734    2.80768313741910  -10.18310451570723
H           0.08813864792894    1.53355756521701   -8.96927355875475
H           0.52496838847739    1.13117434079430  -14.30113031685812
H           2.87930918226833    0.94433606286368  -11.21416006921235
H           2.87975935060910    1.64196168952951  -14.18930635982847
H           8.63785271529865    0.64530131915413  -13.03513235991856
H           6.97235433453366    0.13778510607246   -8.19291971153487
H           5.40913486306900   -0.70482150685003   -8.36476142717470
H           5.43083715217646    1.04203628344480   -8.06306781334908
