83
 SCF done       -140.610905646053          0.000391093915
C           2.96226331298974    1.44089218299063    1.87212702012843
S           1.64273073927242    2.37145557137536    1.29630248714751
C           2.63056852446210    3.02251705277291    0.02714299929210
C           3.91230959049154    2.52343925069014    0.06572765183491
C           4.09611688502182    1.61069044972394    1.13352934035356
C           5.39467723487826    0.89747254339743    1.39566571835429
C           5.69825940966435    0.86519665243648    2.86405390537355
C           5.94991228145012   -0.23121978617319    3.55313146789127
C           6.53087997726449    1.59160822485429    0.63329926837354
C           6.13187512168336    1.83965567528734   -0.81642015206945
C           5.01027529464748    2.87294106420374   -0.88334758125861
C           2.02219762901269    3.94509669772787   -0.89610594607750
N           0.70309159261815    4.12677836119641   -0.76362905525483
C           0.12493888067215    4.95054941320184   -1.61582602350322
C           0.82789869450199    5.60629070662180   -2.61291723340923
C           2.20762837931652    5.37112504576610   -2.66786016629852
N           2.79096963582178    4.54003326734862   -1.79935688495685
C           3.05490449572129    6.01058904125077   -3.64937128994207
C           4.39169074559738    5.85270207141121   -3.61774939348210
C           5.33707291427638    6.38000489877159   -4.53685443919805
S           4.86882290657044    7.00033850352490   -6.09355853475687
C           6.51712003172052    7.16321214130932   -6.56015761531202
C           7.39048617171223    6.76805669873197   -5.59861296263262
C           8.87526554965451    6.81454202916805   -5.73906377115416
C           6.72298399457012    6.33531468446815   -4.41171695076625
C           7.40761207433240    5.93147577795837   -3.21664387720139
C           6.96272906104198    6.20387333940884   -1.96551935244040
C           7.55829078961215    5.76668709154953   -0.75224224270274
C           8.42776514117531    4.72350760806996   -0.62317107731260
C           8.93682299147553    4.29020005810971    0.61063726630281
C           9.67071190898345    3.14433035561006    0.78748370816147
C          10.17972705171522    2.63581186440232    2.00668629228494
C          10.82048030487073    1.44042902771767    1.89196354380676
C          10.85236866102501    0.93119723578766    0.57350838100683
S          10.05707315144931    2.03691458667500   -0.52306677669874
C          11.39109536074391   -0.26380394152383    0.14113618596552
C          12.05814032144711   -1.24454347273667    0.90989577450342
C          12.45522954439977   -2.33031160703804    0.19398076774274
C          12.12244816089826   -2.27493181739108   -1.18504656002970
S          11.29224111184310   -0.76989928624717   -1.53589374957548
C          12.38947975581330   -3.24525403638764   -2.11246685493012
C          12.06443230826363   -3.23179495521359   -3.48019873811590
S          11.24933649398025   -1.92291679480551   -4.32081604926051
C          11.26814518041570   -2.72002680533736   -5.84394460936571
C          11.87202587535150   -3.95098570724699   -5.73921835750126
C          12.31478381241793   -4.22669666598756   -4.41028084458079
O          12.89779967782643   -5.44183321076648   -4.33659148127218
C          12.83215543861633   -5.94393578294953   -5.59962256146388
N          13.37293882836365   -7.23114032508235   -5.82294989361056
O          13.30262755995785   -7.65827162874399   -6.96090732386230
O          13.86277989670949   -7.81560692457831   -4.88046062672809
C          12.22882312334685   -5.10127213580953   -6.49485961140576
H           2.83540853186108    0.80949351014203    2.72968356921840
H           5.30505517951792   -0.13278519787470    1.02848672519219
H           5.71320697387058    1.83361836494971    3.34739444559741
H           5.93818236868583   -1.20559007589669    3.09209358659198
H           6.17566439091640   -0.20660442203670    4.60589504157828
H           7.42523023204371    0.96730515396837    0.68305434619899
H           6.75985860959922    2.54665640714264    1.11181584800647
H           5.79737501577008    0.90191278927803   -1.26515316956274
H           6.99305464129167    2.19631880582795   -1.38346182927736
H           4.60632110422887    2.95214295411404   -1.89378955074882
H           5.40420814062185    3.85948740065469   -0.61790060945964
H          -0.94272451811878    5.08401102717462   -1.49033095900644
H           0.34339959514781    6.27232925373516   -3.30828248966945
H           2.57477971310610    6.62788470078765   -4.39594890935867
H           4.79558379724396    5.24082901140533   -2.82208534137592
H           6.74550433120608    7.55054005425050   -7.53385922269488
H           9.15318155527045    7.23640194295593   -6.70122798673446
H           9.29422493067562    5.81128486759565   -5.66423786170090
H           9.31152044403184    7.42270081804186   -4.94774993949694
H           8.35824044858558    5.43399321885641   -3.35245409452733
H           6.09702249135477    6.84530848392474   -1.86060652453479
H           7.23983444649748    6.27530035707789    0.14945731555684
H           8.71659637589219    4.15518767580156   -1.49748630820171
H           8.71273597208320    4.87622700857507    1.49299135559416
H          10.04904093304547    3.16920439325793    2.93175697225435
H          11.26136637881773    0.90877101157752    2.71572663589822
H          12.22549576170669   -1.12183753366718    1.96479446027253
H          12.97505090723680   -3.17695534031237    0.60593589570036
H          12.90236147517051   -4.13557690192141   -1.77295950540985
H          10.84236202070672   -2.24397314620510   -6.70209271325353
H          12.07317417237002   -5.29600088328163   -7.53554237211898
