91
 SCF done       -174.245952822542          0.000336407506
C           1.76547215328587   -3.30516837322066    0.54391948027691
S           0.71551290622576   -3.58995994798499   -0.77226412751052
C           1.70907538374825   -4.31196504989452    1.48249623637929
C           2.42952799299088   -4.41089011863105    2.69418774354182
C           2.25650818526220   -5.48259410802526    3.52578782590272
O           2.92394906767069   -5.62557395772805    4.71294469496407
C           3.82306664507042   -4.61950080813588    5.10566031293950
C           1.33353463234704   -6.52622150707703    3.16434518564687
O           1.05799943694426   -7.64587652753167    3.88554684243617
C           1.69548881391026   -7.94529614150616    5.10592578773375
C           0.62874401846773   -6.43521270814287    1.98680622379326
C           0.78773821024138   -5.34407410204316    1.12054325766792
C           0.15176459574395   -5.09576881393664   -0.10389384261930
C          -0.81095160718996   -5.89101408965014   -0.75660833243503
C          -1.40548459450539   -5.58010828138514   -1.93935927316324
C          -2.37733830674083   -6.38243746040301   -2.57358875358570
O          -2.79179050376894   -7.56461651917046   -2.04732490001335
C          -3.73946892649854   -8.09361554184649   -2.86924160827973
C          -3.93238042464320   -7.22877707973020   -3.94901823818716
C          -3.06594781944188   -6.14252252021057   -3.76367562061640
O          -2.91526297768182   -5.06515195466706   -4.56707075136097
O          -4.77584591369443   -7.35283753145582   -5.01124632314038
C          -4.36171710756044   -9.32345089359622   -2.57830415559779
C          -4.05662502220654  -10.11005652915726   -1.50354018244032
C          -4.69739345517192  -11.33028445095512   -1.23282447596409
C          -4.36921146503442  -12.11419666245572   -0.15889299138216
C          -4.91593177726090  -13.34162480453580    0.24281573278742
S          -4.44483773543393  -13.93069173467676    1.81225415012123
C          -5.51334820755539  -15.30433002390670    1.75607369627784
C          -6.15127534274724  -15.35806598054821    0.48910902123526
C          -5.81794280516195  -14.25456590252275   -0.35623615561150
C          -6.33075112266233  -14.20923411071311   -1.66311384311179
C          -7.14558155736104  -15.21393790638045   -2.10825829552576
F          -7.61165153057919  -15.17815341135140   -3.36855559533878
C          -7.45249602100146  -16.30772528903073   -1.28362646763649
F          -8.21396669863721  -17.30675634468773   -1.76838417812675
C          -6.95910423300546  -16.39246210326315   -0.01023956877762
C          -5.61192930819958  -16.10911962563726    2.89294763969600
C          -6.62816789137879  -17.00029381395244    3.16010128105376
C          -6.70683647391872  -17.83751704197978    4.26586821757558
C          -7.79054819718906  -18.68515033353578    4.44676838623525
C          -8.05746104194351  -19.60541860804322    5.47713107346375
C          -9.23752769724049  -20.29128607174626    5.32837703908042
C          -9.94978240024855  -19.93665928991849    4.17191098832500
S          -9.08859511970401  -18.71541977704850    3.27330669022371
C         -11.16674190049483  -20.36705680901534    3.65352351116305
C         -12.11552683702959  -21.29981541750741    4.10410681534745
C         -13.20452461873486  -21.41047418184820    3.28230720654066
C         -13.16810991704002  -20.56521274988649    2.14571885879720
S         -11.69076223980385  -19.63403733724364    2.15991119805433
C         -14.11769311771334  -20.47044736351713    1.15404698897196
C         -14.09492500083462  -19.61129300982642    0.03891915796621
S         -15.35857733460225  -19.74919296822518   -1.18148797972141
C         -14.73910596872994  -18.48256886842940   -2.16803976591566
C         -13.60385260259207  -17.95393635912770   -1.60193916613126
C         -13.24923397523860  -18.58884675077088   -0.36952832416207
O         -12.14502393639850  -18.01150368658994    0.14953486994048
C         -11.78710392038953  -17.03563716021334   -0.72177701122751
N         -10.65096792551052  -16.26666266433119   -0.39331219555574
O         -10.37832197119898  -15.33854779020695   -1.13527044443048
O         -10.02545910103361  -16.56255434554309    0.60552334076293
C         -12.62358155612161  -16.94285536821210   -1.80343679923161
H           2.36667885075298   -2.41819467963625    0.56210672536840
H           3.11427476041157   -3.61570714722273    2.93880529777916
H           4.64716155745706   -4.51487942607337    4.39275288791338
H           4.21787500607533   -4.94264806380215    6.06785937806024
H           3.32003795568667   -3.65472311481873    5.22580718476695
H           1.27523223572828   -8.90374790261189    5.41156000974372
H           1.48323414101129   -7.19576826756211    5.87113650523787
H           2.77644102206647   -8.04455874321736    4.98700502539146
H          -0.05463966384946   -7.23433377506152    1.75072574943302
H          -1.09011531893153   -6.81109560764550   -0.26319521159328
H          -1.15590456495445   -4.66684588425122   -2.45983179815925
H          -3.51918078035124   -5.16557858360730   -5.31407276200193
H          -5.27251846763273   -8.17421546632014   -4.93404324231157
H          -5.12939343791108   -9.64887919754705   -3.26956227133509
H          -3.27714201724515   -9.77775368791136   -0.83268130548938
H          -5.49341270119398  -11.61810582105418   -1.90117145847917
H          -3.60409036644999  -11.72835688251423    0.50564186188438
H          -6.07211650730264  -13.41927854717890   -2.34488752336136
H          -7.18645476489458  -17.26975984194129    0.56866221401353
H          -4.84617032095817  -15.96437183957323    3.64592451601057
H          -7.47015747161716  -17.02931676843551    2.48412612047891
H          -5.91116876620098  -17.85049108071413    4.99841988731989
H          -7.38047263738045  -19.74319307702709    6.30243175134317
H          -9.59978374637006  -21.03167776194374    6.01977532924605
H         -11.98261045988245  -21.86126716170084    5.01218295918163
H         -14.03504950347040  -22.07041119424455    3.46236487114451
H         -14.97306983519901  -21.12862601556749    1.22273502814438
H         -15.23839857495473  -18.21383340606786   -3.07463426542268
H         -12.53408245546504  -16.24943437245616   -2.61340355215704
