98
 SCF done       -169.641949825990          0.000313913621
C           1.61198209422886    1.08205262622994   -3.50141397634792
S          -0.11624985372778    1.08101181414255   -3.61419310449853
C          -0.21900089087020    0.07725178862816   -2.21445040326228
C           1.04645939481896   -0.22002471564957   -1.71399042778959
C           2.09277105797560    0.35947788347534   -2.45700782494434
S           0.99297961979278   -1.23353598657866   -0.29991836591391
C          -0.74709015229122   -1.25666661542942   -0.38802141954878
C          -1.74271501306540   -1.86576664952428    0.38690018130102
C          -3.00465055095385   -1.59601227852715   -0.08056504191918
S          -2.96176335752287   -0.56520150426428   -1.50591842844895
C          -1.24206469144314   -0.51444804371627   -1.45806020044022
C          -4.27594686454410   -2.04734048665692    0.43498460084993
C          -5.46837638561296   -1.57341539480018   -0.13057358744478
C          -6.67396685051395   -2.00951926921893    0.35789288442932
C          -6.72482335633050   -2.92524924061298    1.42277647396751
C          -5.55178433495447   -3.40848607235254    1.98394639264195
C          -4.34101913578790   -2.96795776181277    1.48915269660727
C          -8.11125273021048   -3.19172938715117    1.73369341678114
C          -8.91937159977331   -2.45308019491039    0.85050714858703
C          -8.06641967847473   -1.65094275471412   -0.10571268348387
C          -8.29337810595543   -2.09354233266010   -1.56401557181113
C          -8.03638129479700   -3.57963402774888   -1.78099257648941
C          -8.33849720873753   -0.14052099662306    0.01485866476375
C          -8.14480778612667    0.38723277715054    1.43080439825800
C         -10.28662333518993   -2.53188920853919    0.92650783564367
C         -10.88970589062145   -3.33569914825057    1.91110554409151
C         -10.06543075688947   -4.06113187429651    2.78671621117974
C          -8.69107527468881   -4.00149654216292    2.70041205719024
C         -12.32447693687520   -3.40323059064391    1.96904186943505
C         -13.05483112992997   -3.92171010091031    2.98864377288702
C         -14.46056326152706   -4.01729861219094    3.00055764827286
C         -15.16603661896210   -4.51148071736091    4.06588310222737
C         -16.56462563286319   -4.71204991608567    4.18489262655345
C         -16.96271502926954   -5.23365456755060    5.37845166137138
C         -15.90219935039171   -5.46387001304380    6.28330329837622
S         -14.37520859238197   -5.00952898588863    5.55578074046371
C         -15.93048340598191   -5.94967034169471    7.57305233292661
C         -17.00574615740030   -6.40404063691715    8.36745012794548
C         -16.65261078768297   -6.80887453145499    9.62043466915946
C         -15.26914720206695   -6.68893499172424    9.90206462171361
S         -14.43351952499453   -6.05529179446059    8.47677345257482
C         -14.57188036731258   -6.95783393001888   11.04514376474189
N         -13.23488833689156   -6.71356192822109   11.08017270951933
C         -12.33101400629527   -6.86012812993338   12.06526101679661
S         -12.70645515506686   -7.58869613235980   13.59063497476421
C         -11.04440743080761   -7.38108113636006   14.07065284460040
N         -10.69843524404732   -7.81253015141885   15.34437841095602
O          -9.53910408037252   -7.67593492499108   15.70330661523607
O         -11.59472654472707   -8.30264493146718   16.02049875920645
C         -10.26439306645578   -6.78746056637332   13.10997688533466
C         -10.97987246525364   -6.46845272877708   11.94630867606674
C         -10.48352203371679   -5.79502297711276   10.78054884860020
C          -9.19784680939535   -5.50998313706399   10.48828324803047
C          -8.81110837400684   -4.80099254130628    9.31090096958531
S          -7.10169266066755   -4.54969084433776    8.98726366306216
C          -7.46961150779360   -3.67988852026990    7.54603523839482
C          -8.84954317130833   -3.60164546486706    7.34529053843314
C          -9.60370457619607   -4.23652187710697    8.33479579100297
S          -9.27753584821164   -2.70097306443347    5.91529313088770
C          -7.59066868454027   -2.42286693925224    5.59590189993938
C          -6.89803209283188   -1.72121120507039    4.59240537458478
C          -5.55494399399384   -1.79155362019342    4.77992952321407
S          -5.09300984568700   -2.70777053337041    6.17512518071318
C          -6.75263581210184   -3.01149005978094    6.54195102075214
H           2.17081130802900    1.63032135583349   -4.23326065321405
H           3.13563316268120    0.24433517691108   -2.22719707838584
H          -1.53020635586094   -2.46868227180760    1.24958000433142
H          -5.42326099208906   -0.86833233928609   -0.94839837699014
H          -5.58101900270012   -4.12275244382525    2.79291246182967
H          -3.42802804035176   -3.34804718074149    1.91970496154379
H          -7.63165896001054   -1.51360872972368   -2.21083091292271
H          -9.32312284883393   -1.85943671411701   -1.84257290398603
H          -7.00702825835557   -3.83141635307178   -1.53564168851598
H          -8.21590712219050   -3.84139177976973   -2.82111782745549
H          -8.69431945123608   -4.17938424682112   -1.15577973385086
H          -9.36320374421079    0.05695747017614   -0.30689667117584
H          -7.66724448739359    0.39017362934319   -0.66345342545981
H          -8.82721668544512   -0.10767824383367    2.11943422192342
H          -8.34258933479667    1.45625320790883    1.46345046956162
H          -7.12278565805416    0.21789663244540    1.76477068191105
H         -10.91243005007475   -1.97210497517835    0.24555634897197
H         -10.51530300246456   -4.69741431373902    3.53247119431290
H          -8.07518816074566   -4.57817309202852    3.37460483438993
H         -12.85282921474113   -2.98432881434131    1.12075814791072
H         -12.55111335828891   -4.29060596773129    3.87257838302468
H         -15.01453256779337   -3.70156350143758    2.12652004118461
H         -17.23176577176202   -4.46752703661848    3.37682037881894
H         -17.98366631609826   -5.45242288071501    5.63687399625839
H         -18.01224018566906   -6.42133191162937    7.98891920352910
H         -17.34157417498362   -7.18322929352833   10.35614407056703
H         -15.03935167033572   -7.34861451527887   11.93434512632004
H         -12.86213825044571   -6.33695088291021   10.21311936836480
H          -9.22157931077641   -6.58481936528444   13.26924859171761
H         -11.22937433648135   -5.47005917356568   10.06772893379234
H          -8.39868258471825   -5.81898171410001   11.14550763467688
H         -10.67715056464202   -4.26405051973163    8.32816899838503
H          -7.37098245381942   -1.20036206551126    3.78229125220045
H          -4.78525288557884   -1.35901240552587    4.17265606378460
