95
 SCF done       -179.252351578501          0.000881355773
C          -2.28076882376521   -8.50123512610766   -3.72228365465354
S          -2.23583959235745   -8.16691859130911   -2.04640672727588
C          -2.47516938588862   -6.47044514727699   -2.29284911034949
C          -2.58921826387820   -6.18610565295510   -3.64141569445013
C          -2.47773032018277   -7.36124779861740   -4.45944138213231
N          -2.56949497369091   -7.29010497258842   -5.81930170116195
C          -2.76209331382542   -6.11049808414857   -6.32317541379445
O          -2.88132277865829   -5.93056105177982   -7.63169144154626
C          -2.80152268418460   -7.10190327055766   -8.44022635938849
C          -3.04165203584098   -6.69653568880130   -9.88259644342660
C          -2.86005899867254   -4.91214755005673   -5.48732435851739
O          -3.03480173923197   -3.75886633213381   -6.11472326069987
C          -3.12303797367582   -2.60321014632955   -5.28162283616911
C          -3.23017378742945   -1.38327677983302   -6.17770591053417
N          -2.77667614457690   -4.96148923496772   -4.19361534704680
C          -2.50910352366671   -5.62237576521151   -1.13391122134532
N          -2.72348294126674   -4.31450171377793   -1.27962548204554
C          -2.73115716723108   -3.59462326942731   -0.17303354792464
C          -2.52546545644334   -4.13938448991539    1.08423266316623
C          -2.31062101494066   -5.52245397716400    1.14066137209178
N          -2.30714282045428   -6.24786484237814    0.02353258873748
C          -2.05952977091934   -6.21968691935955    2.38370723563253
C          -1.92049840165213   -7.55502172058128    2.38913148291113
N          -1.65290807921252   -8.30246302790549    3.50195309962910
C          -1.40579379347179   -9.63843945965737    3.54926489078298
S          -1.71769287135137  -10.46798554040470    5.04384409423153
C          -1.26924912095703  -11.96890921716087    4.29472679319113
N          -1.29455751742002  -13.12012932023079    5.08879047026581
O          -0.97938817463433  -14.17424436285398    4.56992634735658
O          -1.62985835790013  -12.97242333672153    6.25266273158429
C          -0.90794359890845  -11.83072257225089    2.98440331521935
C          -0.95621236519240  -10.49401410481602    2.52971269862669
C          -0.50836878765973  -10.06957448293971    1.23569406190370
C          -0.35864712207894  -10.88174251819361    0.15758738667242
C           0.07605893764444  -10.40078701020701   -1.09217075150235
C           0.20744269819199  -11.16667621359997   -2.22005470633467
C           0.57729475357252  -10.71671616724973   -3.51297816513310
C           0.64295415102526  -11.70164718324271   -4.44920207863892
C           0.34259252789164  -12.99020475013057   -3.94684925052339
S          -0.06210286769454  -12.90440360635494   -2.25250846543680
C           0.38212295887280  -14.19078428227881   -4.63463207744229
C           0.70527839327925  -14.39459161774750   -5.99384383928546
C           0.70902448172198  -15.70458209716121   -6.37212803310132
C           0.38890719945776  -16.60562596912118   -5.32866509047972
S           0.06195422366709  -15.72464083744830   -3.85628778025798
C           0.33568202599027  -17.98843364362247   -5.34731230311021
C           0.62915784565105  -18.74617722300169   -6.47677962491406
C           0.63045928678319  -20.12684533808621   -6.52768048905310
C           0.95325409660617  -20.93569039076068   -7.67435655145506
C           1.27842039952238  -20.49856583405823   -8.93952680547741
C           1.58353197638793  -21.35157555031951  -10.01778454776931
N           1.84058040255500  -21.98801837639046  -10.93920272059188
C           1.35262429745361  -19.15367848070344   -9.34885908828093
N           1.43631187667832  -18.08389544373241   -9.76276078666615
C           0.87524355255544  -22.33754636612550   -7.26689353705208
C           0.49713570132095  -22.39240679922393   -5.90364985497728
C           0.32293583354264  -21.01581999443162   -5.39073515536719
O          -0.00469433199879  -20.70830283653284   -4.26158080769793
C           0.34263814428698  -23.57456522013330   -5.22372338784102
C           0.57523983191460  -24.76472759277838   -5.92250473205961
C           0.95307621897211  -24.70059378647476   -7.28331507197769
C           1.10723230395719  -23.50277660475622   -7.97196079023093
S           1.19440186269530  -26.28568656097828   -7.95513440147403
C           0.79057709793829  -27.00185505925277   -6.41755943101156
C           0.48935549165010  -26.10359423894095   -5.45065911432990
Br          0.80514239234699  -28.86910362000476   -6.23449175995053
H          -2.16976912804828   -9.50438928552657   -4.08082626412310
H          -3.55026272327674   -7.82355040402728   -8.09426317330371
H          -1.81250497131115   -7.55609734299826   -8.30954416898670
H          -4.02489624314717   -6.24570507661610   -9.98479076647732
H          -2.98228720508921   -7.57106130187805  -10.52379777610356
H          -2.29516009775195   -5.97216541927915  -10.19638930048169
H          -2.23591157732633   -2.56020141600778   -4.63992715350520
H          -3.99773644494049   -2.70415097857733   -4.62909358325224
H          -2.35244321947910   -1.30704832976612   -6.81375372470527
H          -3.30694000624450   -0.48774446511922   -5.56822504241263
H          -4.10985866298272   -1.45996580418321   -6.81085383006770
H          -2.90809805517282   -2.53457954114000   -0.30693647032964
H          -2.53009132311825   -3.53336643221364    1.97544104771298
H          -1.97057868075616   -5.62690216916333    3.28249002281024
H          -2.04694627747018   -8.09206885924819    1.46192406622725
H          -1.74175519818826   -7.83240082868562    4.39513476646632
H          -0.58215570725736  -12.66549540099125    2.39157974081205
H          -0.25090665821214   -9.02646072345713    1.12210402227670
H          -0.61302934896345  -11.93071361962998    0.22072107787126
H           0.30300355891361   -9.34693673083613   -1.17911082875617
H           0.77613437743748   -9.67734781850847   -3.70528508846264
H           0.90629337219433  -11.54143105061550   -5.47889489795682
H           0.92877002573928  -13.57794627190402   -6.65638038109928
H           0.93602353852581  -16.03628476398422   -7.36932986156694
H           0.07044531484283  -18.50250459443437   -4.43516749228630
H           0.89061589774730  -18.21465299656641   -7.37963960460450
H           0.05382402282923  -23.58240671028771   -4.18437178904796
H           1.39785991235186  -23.50912023695057   -9.00902549444366
H           0.21826944523769  -26.37115666411973   -4.44567819222886
