102
 SCF done       -185.783654281518          0.000783248866
C          -0.42691688116842   -2.64310189474758   -5.13842750018866
S          -1.24078213744116   -3.58599795936280   -3.95004319838503
C          -0.83431625106439   -2.47404019494903   -2.69127621977327
C          -0.09482822034204   -1.41729504532508   -3.18850427329941
C           0.13752534250237   -1.51960073715173   -4.59670443565955
N           0.84913196723707   -0.55507044055503   -5.25134787698156
C           1.28064400004564    0.43318650738763   -4.53122280272211
O           1.97707452910197    1.42426651716068   -5.06828603417547
C           2.21801903880927    1.34077505641144   -6.47152443012222
C           2.97013191814870    2.58886391285340   -6.89452318053288
C           1.03413528074088    0.53150473178774   -3.09081119424391
O           1.52717643219385    1.59842862669533   -2.47153705501215
C           1.27213359343477    1.68688268437175   -1.07465193958062
C           1.91056180435852    2.96327195042176   -0.55816849197803
N           0.36551964404039   -0.37357658474191   -2.44129322468382
N          -1.16819117553154   -2.56246369702388   -1.36722062510622
C          -1.88595910726930   -3.48856016063389   -0.70266296525990
S          -2.48162103187965   -4.92010724191665   -1.47644098629627
C          -3.08551377086590   -5.47823625830731    0.05854334400110
N          -3.74387116305313   -6.70267752558453    0.08617618863135
O          -4.16843952268852   -7.09931780431270    1.15951020831074
O          -3.84695961970642   -7.29667545761169   -0.97714807931352
C          -2.82739002183531   -4.61005868167988    1.08851631959187
C          -2.15929717115172   -3.44826372045657    0.67537825814228
C          -1.80373663116891   -2.39576465837517    1.60302221119569
C          -1.62598277132356   -1.09355045548146    1.33195940570381
C          -1.22017911623526   -0.08195367267475    2.28752253203166
C          -1.53536104949856    0.01828592665720    3.58331579972789
C          -2.49110258331740   -0.86830749457795    4.31547166818837
C          -0.96361287243925    1.14892086335621    4.41160974231180
N          -1.96549716094101    2.13690980606774    4.72974082277345
C          -2.57971431666385    2.24761613321049    5.91857134114474
C          -3.64414628583013    3.06438102929172    6.16158712657011
C          -4.22369963634780    3.20956968795418    7.42984488092387
C          -5.27465903797294    4.04440667366589    7.71824643583071
C          -5.88621086380496    4.24869077553676    8.97557647754655
C          -6.89641998708442    5.16426117609833    8.96545248106556
C          -7.14094950098643    5.73209956961534    7.69626656249117
S          -6.05374682333098    5.06470736644973    6.51067663720033
C          -8.08255631772309    6.69605056577260    7.36728621484143
C          -8.99547527932420    7.33888316866266    8.22364075623654
C          -9.77885309182650    8.27012911625776    7.60061363535687
C          -9.52503769853665    8.40209610836658    6.22020091199573
S          -8.26100707316886    7.30381169669866    5.73503335218563
C         -10.09734502726270    9.26179737610847    5.29292058882455
C         -11.11517742220211   10.15473708672745    5.58200246034253
C         -11.68866849080836   11.08084140661027    4.72517372830954
C         -13.02518447124182   11.61618724765075    5.03703026449792
O         -13.64644740857618   11.48512767562491    6.07303487768900
C         -13.47151215004659   12.30721550201786    3.80565660274706
C         -14.66854510230479   12.90165559661623    3.53696133422645
C         -14.88371971558697   13.46696449123988    2.25844601293601
C         -13.84899572971226   13.39726175942183    1.28268962225370
C         -14.07273285899036   13.95086848224413    0.00687808810078
C         -15.26625137135233   14.54972182406941   -0.28519143037573
C         -16.28662964489992   14.62168842151659    0.68126239685548
C         -16.10110924605093   14.09181114036258    1.92760224033217
F         -17.44982607347512   15.21644031988583    0.36827027791862
F         -15.47607191238338   15.07654817734057   -1.50256329490487
C         -12.61259620191443   12.78397898278886    1.59666918160409
C         -12.42465812252412   12.25275080919985    2.84269429871021
C         -11.26666074834087   11.59768399744456    3.45819847450192
C          -9.97932339154738   11.67464878140507    2.96962467806583
C          -8.82560919888313   11.33904154939769    3.70270467011177
N          -7.84219881176585   11.14003080788751    4.26314081321600
C          -9.64767000276282   12.21527830096976    1.71432913019819
N          -9.31838249280654   12.62094259894594    0.69033734099984
H          -0.41457087710711   -2.96839371695911   -6.15739457509298
H           1.25761384886371    1.25251875450079   -6.99150577621222
H           2.79596666158321    0.43284451633279   -6.67797220542128
H           2.37840618859323    3.47369484220314   -6.67679093503515
H           3.17340766567625    2.54983669622667   -7.96047484498201
H           3.91020484967199    2.65988627013352   -6.35447453839304
H           1.68915076929233    0.80112763399529   -0.57928307751214
H           0.18702181045374    1.68738581031715   -0.91184384896338
H           2.97929153934425    2.94797457148965   -0.75150979518003
H           1.74362895615847    3.05471816667448    0.51133075012227
H           1.48138408220015    3.82484102479518   -1.06161251588320
H          -0.73956923122678   -1.82594810317285   -0.81311986180650
H          -3.13558948427579   -4.80944935332148    2.09903527773622
H          -1.67643786929783   -2.73855762953072    2.61968200063604
H          -1.76471391659150   -0.71340905868452    0.32756048973704
H          -0.58827736652494    0.68995207763337    1.85962163451550
H          -3.17591628144282   -1.35834626505435    3.62885788603481
H          -3.07011673733929   -0.28213527526792    5.02860666720763
H          -1.95399381324392   -1.63351672667245    4.87666001029329
H          -0.14755798312728    1.63717798046308    3.86909723449865
H          -0.56822233499125    0.75258756314478    5.35079578470292
H          -2.37863257034711    2.62320141914087    3.94675366326534
H          -2.14631491370478    1.66696407025515    6.72271940937024
H          -4.06316705772930    3.64301774674200    5.34939312706911
H          -3.81351265210734    2.63201671448965    8.24841646880574
H          -5.55824363004532    3.71636794469979    9.85120495302940
H          -7.46663235203668    5.44501704486836    9.83217785808902
H          -9.05328912762427    7.11091375359338    9.27296890817923
H         -10.52252712188084    8.85987756082173    8.10456313915352
H          -9.71937135750218    9.20182925451985    4.28285425564403
H         -11.60160641986994   10.08857285466827    6.54822271230117
H         -15.44371197416844   12.94062799110068    4.28716063674123
H         -13.29944158729935   13.90718254202034   -0.74415471801579
H         -16.89331927769991   14.15446019632073    2.65721193885044
H         -11.84874421790729   12.74527882706472    0.83672072879196
