86
 SCF done       -165.331808516235          0.000728070985
C           1.48501996281065    6.06173233468399    0.22743818011070
S           0.99691139151846    7.08272924559666   -1.06866642756492
C          -0.67442408356391    6.65044945389838   -0.86675847672986
C          -0.81883789018041    5.75052243364497    0.17525705289070
C           0.42729614355499    5.41533268779946    0.79979822010242
O           0.44039385810560    4.55554078951443    1.83593515704311
C           1.69459919735042    4.23774101615073    2.39440099966564
C          -2.03499279276812    5.22176425815392    0.63601012001250
N          -3.01008007908974    4.78053772958259    1.04864686745354
C          -1.63970809189864    7.22657323080245   -1.74733069674866
C          -2.92027042815444    6.84906175500239   -1.89647680982080
C          -3.77708225455110    7.49436617604597   -2.87581727848000
N          -4.89172520704278    6.85077405663652   -3.22408119392067
C          -5.62880668676034    7.40114225372171   -4.17260715888850
C          -5.28726084955738    8.59518907093436   -4.78557242038968
C          -4.12960146730903    9.23035385139765   -4.31733759123239
N          -3.38287515503558    8.66376576332688   -3.36866583782978
C          -3.68831192732429   10.51193121314378   -4.82633915614721
C          -2.79718360745154   11.24030333275036   -4.13459045750823
N          -2.31060445406150   12.45035655038837   -4.53869960165177
C          -1.50733883485535   13.30119429794873   -3.84437395180124
S          -1.41895288188858   14.94389004816532   -4.40759783308646
C          -0.42107210085951   15.35210481583436   -3.04743616379740
N           0.04329966416567   16.66724572463696   -2.95718366654414
O           0.74369264791285   16.95813482351029   -2.00573745498809
O          -0.29510044456088   17.42682367783955   -3.85032734654236
C          -0.18557317907013   14.28971130891214   -2.21924054780641
C          -0.77799120943041   13.09066682814176   -2.66656684879083
C          -0.58509506452082   11.83062330885395   -1.99163487321627
C          -0.47779843771009   11.71806202179922   -0.64577130371484
C          -0.29516131270142   10.48795166752109    0.02091709454306
C          -0.34544331209709   10.33693282940682    1.38002714949517
C          -0.22259701127748    9.12906206479703    2.11493746173713
C          -0.36984166639405    9.27385005126983    3.45885672991859
C          -0.61681143959579   10.60645215933008    3.86784631358790
S          -0.63682637003147   11.67271565055055    2.48791089150027
C          -0.84651968737306   11.06840839364024    5.15119997530694
C          -0.88681888571672   10.31782719886693    6.34738078059533
C          -1.17292516968684   11.05773334384973    7.45568628577496
C          -1.37400232150880   12.43472799680046    7.19281784673302
S          -1.17278139719012   12.75379030403761    5.48709094304771
C          -1.69957823490662   13.45865602762036    8.06330891476695
C          -1.89482147440504   13.26809134887550    9.42887061604963
C          -2.25223560213253   14.25821961308714   10.32218387724165
C          -2.46616502678355   14.09293756776197   11.73756448105139
C          -2.31792678368429   12.93907476057494   12.47421702222443
C          -2.53033947544970   12.85458666645270   13.86434536508938
N          -2.68372346279138   12.71626819836200   14.99461404883568
C          -1.93166529436026   11.68471326311465   11.96435346202127
N          -1.62369266768765   10.62918121583983   11.62743024542532
C          -2.87036392499715   15.38820369659812   12.28109353649019
C          -2.88929821435187   16.33534271182190   11.22875183487217
C          -2.49802438901468   15.67036374861217    9.96721799823480
O          -2.40859911150350   16.19844537889308    8.87653660051027
C          -3.23582261374601   17.64969834688860   11.41983412792597
C          -3.58404150297092   18.05138981307702   12.71444876172999
C          -3.56432978375808   17.09852598890745   13.75905203227185
C          -3.21149953650175   15.76794528195676   13.56504435946828
S          -4.03298571788108   17.80408289882057   15.27693098623898
C          -4.24564761210193   19.34870037290387   14.49652436557611
C          -3.98016821828066   19.33932062325083   13.16897852151842
Br         -4.79973609695661   20.82792081896458   15.50876033527697
H           2.52447527279624    6.00283236625536    0.47767450385287
H           1.49046514763052    3.53308612559295    3.19755199197375
H           2.18474690486472    5.12783721885923    2.80191363096044
H           2.35060856594817    3.77006980239873    1.65365063205620
H          -1.27472066629097    8.02351036756996   -2.38296343480850
H          -3.35721309289699    6.02822788696073   -1.35051106987488
H          -6.52418789948794    6.85805413874566   -4.44708368628409
H          -5.89143136407412    9.02880906653651   -5.56550542107061
H          -4.11018973191718   10.85457021097134   -5.75990922745206
H          -2.45534483465601   10.87299772533366   -3.18113356326208
H          -2.69601433056682   12.81956387935864   -5.40036988287198
H           0.43138541873445   14.36875305927863   -1.34265436002287
H          -0.50472426132657   10.94243427145764   -2.60288241143331
H          -0.59089138724782   12.59814426272732   -0.02623833027962
H          -0.13434051466820    9.60166787111536   -0.57698467057852
H          -0.04075346214304    8.19107111167959    1.62247116279836
H          -0.31797080164230    8.46424757669577    4.16411922778154
H          -0.71142474845474    9.25727847448607    6.36181581768614
H          -1.24594457321071   10.64501440335381    8.44580463341426
H          -1.81753455852732   14.45376211851982    7.66006074441457
H          -1.76543472117955   12.26854299302012    9.81639370565447
H          -3.24062781857204   18.34681344361404   10.59658526370390
H          -3.21367112860375   15.08174847565655   14.39515854957751
H          -4.06017383375051   20.20310908870689   12.53450972903571
