126
 SCF done       -191.429780024182          0.000584519011
C           7.74661301950524    5.79526637670466   -3.07199155583528
S           6.15642493430688    5.47870288940471   -2.52231648686748
C           5.84060463340871    7.16412363921409   -2.26944935073470
C           6.95517307935956    7.93065126160929   -2.61008294557079
C           8.04946811954054    7.12880331470606   -3.07156917627453
O           9.27956696992025    7.51245960367791   -3.48400672541231
C           9.62181759431264    8.87940767442723   -3.48044963532148
C           6.97351882604146    9.32693872381578   -2.50036529204542
N           6.98564811782339   10.47375165479107   -2.41035023709158
C           4.55396205872543    7.52176222076743   -1.76956165854505
C           4.10510942779160    8.76933578908783   -1.52134766844291
C           2.80543979620057    9.12394091596818   -1.00635769218470
C           2.51795115193214   10.48863459726974   -0.82871614170951
C           1.29831916481564   10.87175247835998   -0.33070112147832
C           0.33111461119259    9.90823251546040    0.00584412883215
C           0.59938920109891    8.55720702548706   -0.16850289448642
C           1.82651767595312    8.17777317536549   -0.67059006594074
C          -0.83899538134386   10.58692229305827    0.51196809081930
C          -0.60149613032993   11.97289540990322    0.48778078513185
C           0.77845811218857   12.26419179262508   -0.05635462789423
C           0.70824359232267   13.09894115143738   -1.34849156304012
C          -0.14068951574382   12.44233699842431   -2.43046568495700
C           1.64983802391231   12.99357651365824    0.98264872979059
C           1.76863094478523   12.22840238591170    2.29522735479995
C          -1.55945788235975   12.85173242616690    0.92605846470676
C          -2.78729967996959   12.36832958093472    1.41530097440815
C          -3.00615143982796   10.98029206923778    1.42384577971225
C          -2.05017485343768   10.09396941441325    0.97829978202212
C          -3.76520605938703   13.30861093615064    1.89014129375869
C          -4.93881745165599   12.99388040812313    2.49479150182586
C          -5.88826231295314   13.92223529521610    2.96455825970208
C          -7.04767701388974   13.53893024710119    3.58656597996515
C          -8.08664828246921   14.35549030859987    4.10123243191355
C          -9.11860763688135   13.66836240722108    4.66392118699577
C          -8.95906771865680   12.26383660116278    4.63174919602665
S          -7.44555023974881   11.84622161267925    3.85641762709844
C          -9.79515784003542   11.27477210490120    5.10035537999221
C         -11.05736242961495   11.38103965048296    5.72961843967034
C         -11.61395602077976   10.18446094175710    6.05199276921432
C         -10.83301985867218    9.04329594612391    5.70260799534351
S          -9.33795265660085    9.59050636906368    4.95228014784178
C         -11.21994933845405    7.74617331825978    5.87224143271878
C         -10.52721853351425    6.53893926552854    5.53236437023191
C         -11.26157612637741    5.33587038950006    5.48796258244787
C         -10.64509830311866    4.17134886137309    5.11030817498855
C          -9.27495535043194    4.15893932638498    4.78992590926423
C          -8.52831111666783    5.32548015027561    4.87158101177713
C          -9.15487632573492    6.49680675580356    5.23726811680659
C          -8.90022077056406    2.81788821023895    4.40933284477044
C         -10.03539243087257    1.99296888839338    4.49141816240703
C         -11.23559444432460    2.78759891690250    4.95510999072192
C         -12.35877551518710    2.77310872636492    3.90210528902684
C         -11.90063096110396    3.28874846392518    2.54320227573760
C         -11.77631298212882    2.25461470075158    6.29470798744095
C         -10.72016951566313    2.23770167876199    7.39315161397789
C          -9.95297858277823    0.66264496725857    4.16380579149410
C          -8.72815105182714    0.11974890598688    3.73928066127742
C          -7.60568356953367    0.95737684060949    3.67099619135909
C          -7.68139941789890    2.29376165033832    4.00110453330569
C          -8.67818535714080   -1.27666135570063    3.38301567406180
C          -7.60636114845473   -1.94959965156988    2.92139865819748
C          -7.60838419737504   -3.32868840779186    2.56944446744878
S          -9.00707235821770   -4.34732553800732    2.69081439710656
C          -8.14897376202431   -5.72555605999050    2.09617625239835
C          -6.82204486113364   -5.40443348821530    1.81385040754859
C          -6.51840182618755   -4.04020331134293    2.08441290566186
O          -5.34831653112735   -3.37740174729393    1.93396739229322
C          -4.21541435901062   -4.05690897197440    1.44517981452236
C          -5.91201741357626   -6.34966226432275    1.31578757153232
N          -5.17020904063544   -7.12547856355948    0.90529022547318
C          -8.87554906809981   -6.95740708086380    1.97615664362188
C          -8.41132947433674   -8.13065460324616    1.54623315903785
H           8.39282837985708    4.99662416722536   -3.37164484782486
H          10.64901786816110    8.91940409135992   -3.83989737011305
H           9.57212820040276    9.30550398895441   -2.47475296535994
H           8.97985983664450    9.45801438427656   -4.15020793269955
H           3.91174702617716    6.67003000746105   -1.58982056899363
H           4.75964647553186    9.60619197648482   -1.71576953692180
H           3.26866267899346   11.22198307497923   -1.08681684901280
H          -0.14029612266365    7.81284198873709    0.08650270096457
H           2.03329017593094    7.12704268338280   -0.80237011821654
H           1.72278129330894   13.24725153679218   -1.72417600654997
H           0.29358090427135   14.08038315276490   -1.10824057105721
H           0.26840653757777   11.47201834666649   -2.70336656713043
H          -0.16387698148374   13.06844557404916   -3.31952055836796
H          -1.16159123130732   12.29845122661283   -2.08329436865631
H           1.21545087980602   13.97709219726451    1.17469053993085
H           2.64523634016102   13.14454484747908    0.55985005931409
H           0.78932323285106   12.08558054086172    2.74693267753387
H           2.39377121576349   12.77925915086335    2.99429502585757
H           2.21591773601279   11.25061557368436    2.13028398107775
H          -1.38127671604240   13.91801751717848    0.90993861044863
H          -3.94698388070932   10.59272505238783    1.78146320376007
H          -2.24179800046316    9.03122795919024    0.99390882735564
H          -3.51841837033533   14.35563429487072    1.75996228965600
H          -5.19536488985621   11.95488180094952    2.65333049798680
H          -5.70287351454757   14.97990189436719    2.83333357353842
H          -8.03483881824149   15.42847718004174    4.03644283733463
H          -9.98717406934061   14.12811805321821    5.10163236498871
H         -11.51732173225727   12.33517710991456    5.91745428436493
H         -12.57124931223791   10.07132485372495    6.53069250995904
H         -12.21447598232193    7.61142023027464    6.28235203970761
H         -12.31493501006673    5.35185718931916    5.73129550876334
H          -7.47146675942845    5.32004975711778    4.65092258133659
H          -8.56525887170990    7.39461160040865    5.32019213128115
H         -13.18525913151049    3.38893751291432    4.26360246266309
H         -12.72654322617312    1.75013812792105    3.79642530409578
H         -11.54429815280356    4.31346862752425    2.62206790626521
H         -12.72592542307532    3.26418014955838    1.83509125908874
H         -11.09243421081630    2.67446691936000    2.15237955160485
H         -12.15535976716292    1.24189650257128    6.14085582312808
H         -12.61461882131165    2.88108170378578    6.60749765073226
H          -9.88224633055869    1.60456165064122    7.10975576247047
H         -11.14607209833557    1.85281180811727    8.31706918790553
H         -10.34352040376994    3.24121815363356    7.57856947252108
H         -10.82225677887396    0.02238225798125    4.22200621569405
H          -6.65889033985016    0.55050646275745    3.35180802471570
H          -6.80601323060346    2.92307157370612    3.93929008793365
H          -9.60900826283908   -1.82169697407785    3.49610435763738
H          -6.65040056111380   -1.46696636976549    2.78100850381366
H          -3.42075542120061   -3.31235801675826    1.42245093894635
H          -4.38075150731179   -4.44246971544584    0.43560951668838
H          -3.92340098211247   -4.87972794317938    2.10308622387809
H          -9.91209297415575   -6.87544789305802    2.28053008964716
H          -7.39427285905120   -8.27502810034214    1.23145340818515
H          -9.05732295196068   -8.98976513278973    1.50073998240872
