86
 SCF done       -157.963690921994          0.000401423576
C           7.17651555293514    4.62776986592710   -1.26643859059975
S           6.26556966303393    3.51380766872249   -0.31856928900289
C           6.10325686775406    4.69889329518232    0.94013217005279
C           6.71799960561069    5.88447042580011    0.62100751440896
C           7.33570715630024    5.83166019276451   -0.65529710729798
C           8.04899404353079    7.00538279225007   -1.24769960011189
C           8.36562675191404    8.05142302216872   -0.17902638225904
C           7.15544576154270    8.33683211819495    0.71513555175963
O           6.03638455225865    8.81134114153767   -0.00421461934929
C           6.81211786492714    7.07505256934825    1.52082715309236
N           5.39675051061526    4.46907079953153    2.09870251430872
C           5.02282230436817    3.30784127607483    2.66413441311906
S           5.35661320745968    1.74851263931854    1.99539000439531
C           4.71083135169075    1.00956326652216    3.43944362728237
N           4.69543271928825   -0.37471920331832    3.49451054395669
O           4.23711820236498   -0.90807842018820    4.49448207947384
O           5.14875105516009   -0.97221525137127    2.52548814771760
C           4.28301674380769    1.92292091160612    4.37363680139845
C           4.42493761909781    3.24177595924696    3.93729706336395
C           4.08873354664411    4.43817004748507    4.67754979694376
C           3.39136470705304    5.47241391783168    4.16269642349149
C           3.24622704901585    6.73968925780648    4.81036233241691
C           4.27867460217293    7.36640072982004    5.43798470438118
C           4.27579008143086    8.63455194660187    6.08428752690876
C           5.50511742460930    9.07915132392387    6.45087258267965
C           6.56389869047149    8.20170326199841    6.10679424648937
S           5.93454191617721    6.74686627908007    5.37234741419232
C           7.91973647914944    8.38987663806726    6.25299597064817
C           8.60412972797937    9.44183952089337    6.90477472490749
C           9.95666160924260    9.33456197764999    6.84257847408414
C          10.42583590126964    8.20715601462269    6.11063361910550
S           9.06430375718558    7.26360698959228    5.54701117745155
C          11.74607827099791    7.87686543872278    5.95519906034969
C          12.32417159167647    6.85103230712574    5.17416146115406
C          11.92590581076203    6.26273113621269    3.97349000799421
C          10.83686559395818    6.71901707334965    3.22752468226283
N           9.95868339057799    7.12869592819478    2.60998475612272
C          12.84126313179885    5.26918939422051    3.51652125978719
C          13.91270127030864    5.13168827308887    4.39028035955831
S          13.85899254745224    6.19925972404463    5.73734607928164
S          15.09393290659790    3.94625447284033    3.94357079172101
C          14.14200716092541    3.62704785727402    2.53077685079642
C          12.98521584066403    4.38415462609797    2.40426083127778
C          12.30717976123404    4.08065816924169    1.18301968539167
C          11.20253543314320    4.78380805443171    0.68471104176391
N          10.33000496750642    5.37177483126783    0.22712745853248
C          12.95344667735859    3.10523134513951    0.44254658659685
S          14.41755395707290    2.54527975965197    1.22395385618427
C          12.62997431905411    2.52671649531976   -0.82773705743245
S          13.97294128306623    2.10135564126756   -1.86579241615167
C          12.90532688709749    1.44697184899076   -3.03158042949397
C          11.60075666880715    1.53008340980845   -2.65245597558875
C          11.42834188167332    2.15559084043692   -1.38921709405193
C          10.07205467548325    2.32669511490972   -0.79425852979343
C           9.08360897096792    1.33073956994372   -1.39740801342466
C           9.10444428097152    1.41844723649614   -2.92397380774782
O           8.81388016035486    2.74869126605348   -3.30128466101486
C          10.46911987274249    0.95679647300648   -3.44911526370596
H           7.55996034706058    4.30090909301426   -2.21188154648476
H           7.42896239476275    7.44370580812014   -2.03859994128969
H           8.97511359768103    6.66780038419182   -1.71312254240983
H           8.69132549310322    8.97502322210286   -0.65945962069785
H           9.16914424491419    7.68204374144314    0.45622206903950
H           7.39918118989885    9.14568990188916    1.41157799734465
H           5.79621702680413    8.13562233996883   -0.64879528086235
H           5.87493400716222    7.24033211602952    2.06220922159252
H           7.60911156599917    6.91100344396462    2.25160125502707
H           5.27011846975953    5.28640364043754    2.69169382160064
H           3.86193086971273    1.63168055964505    5.31864931047759
H           4.41367151864705    4.47344623377123    5.70879443761524
H           2.88290044930591    5.35117669403236    3.21279328156534
H           2.30430141135709    7.26272794152823    4.72115473651157
H           3.35960602935204    9.17705240893733    6.23728044795964
H           5.69134709321743   10.02734421548542    6.92270733520318
H           8.08015414489997   10.23568675235928    7.40617422886723
H          10.64534440097035   10.03517914917843    7.28061409348291
H          12.44754822259832    8.44360472604988    6.55577905317291
H          13.30359457146040    1.02782426619521   -3.93457115707842
H           9.71369978877912    3.33762502477245   -1.00910089817087
H          10.11019460182311    2.21711973036340    0.29161042409816
H           8.08110515942804    1.55451787481895   -1.03457143797556
H           9.33796172146962    0.31120723913322   -1.10477862983203
H           8.32872610209584    0.74943477922518   -3.33366705801285
H           8.90895704055223    2.82971780712531   -4.25621836333568
H          10.58106734483555    1.22942673887259   -4.50318317283717
H          10.51442685331795   -0.13468509566913   -3.39080457474877
