65
 SCF done       -126.795290919550          0.000667220695
C           5.28430121511636   -4.47409783943870   -0.19340855475318
C           4.83428536905423   -5.71019404159031   -0.52580077963250
F           5.55216586993025   -6.82288028673303   -0.36999311817520
C           3.53094298508089   -5.71156790522152   -1.08614002375431
F           2.93960579473104   -6.82134405709108   -1.54798198543340
C           2.98434703670878   -4.45606621702422   -1.16096052736177
S           4.10235408072207   -3.27354221675505   -0.53611695915975
N           1.76801352289641   -4.03690258405933   -1.63874890213011
C           0.57386662806743   -4.69514319945653   -1.58901696692449
S           0.34337489549665   -6.14187542820309   -0.67688645923934
C          -1.33830435844478   -6.12763425019947   -1.10980515031775
N          -2.14266961602619   -7.15982198846221   -0.62421981911995
O          -3.32073099174618   -7.15716325110586   -0.93653381539880
O          -1.60272077562667   -7.99049890241864    0.08854674772155
C          -1.68901729089589   -5.07131065733629   -1.90639679455767
C          -0.60264203517172   -4.22464885074323   -2.20006832775004
C          -0.63742222226430   -3.03685307639242   -2.99541961844688
C          -1.74185038985230   -2.48558118753527   -3.56044814577038
C          -1.77691933630899   -1.28514672594019   -4.30651574621765
C          -0.78289334417149   -0.36900493126283   -4.53605552199961
C          -0.94533378823046    0.82798887282045   -5.28611041983972
C           0.15923757101721    1.61663321474599   -5.35773870300913
C           1.28207714415939    1.09840746032099   -4.67186565244048
S           0.86971693484239   -0.43790250159487   -3.93611065496662
C           2.54023818290227    1.64235820499628   -4.55061942248297
C           3.01020500377594    2.86714919304491   -5.08611747849260
C           4.30809794743080    3.14086823318033   -4.79819898346079
C           4.96034826353740    2.14796593459878   -4.01561916080011
S           3.82219953204846    0.84718321747296   -3.65997084021103
C           6.24740900420768    2.09237920263736   -3.56549069950323
C           7.23008308885946    3.09095763877748   -3.80248531965490
C           8.52322140299181    3.01637637733822   -3.42249936170318
C           9.10160645532640    1.85755941846222   -2.67166437466587
C           9.47769757340971    4.13232498213719   -3.76138694866715
N          10.08788767548036    4.70741562813017   -2.58332703798763
C          11.33601930641441    4.43718619616139   -2.12607181890133
C          12.31124917104938    3.74574560052813   -2.75125872903197
C          13.61813816729070    3.57030227752756   -2.20716618687418
C          14.65694299221368    2.87422252508337   -2.77751203882205
F          14.55002053952454    2.25312861074171   -3.96772584417189
C          15.83833011646404    2.87033513411003   -2.00245265716001
F          16.96346940406831    2.24897762810211   -2.38006910777865
C          15.71634909032796    3.55795197272726   -0.83759886148611
S          14.13723192515310    4.22435828027084   -0.67814882172222
H           6.23233077598564   -4.20784502412547    0.22508253775429
H           1.72527525890500   -3.06839872489020   -1.93337480291760
H          -2.69345170223677   -4.93296276434610   -2.26052862943420
H           0.31300603176581   -2.55568946346901   -3.16415383581239
H          -2.69288429934791   -2.98527736489699   -3.44424089341533
H          -2.73390130511055   -1.03111193612616   -4.74480475572946
H          -1.88798464250116    1.06526239241912   -5.74735163391471
H           0.19900066718511    2.55480424982374   -5.88147613110661
H           2.37240596732719    3.50786009505919   -5.66867101456172
H           4.81931952160203    4.02639052240947   -5.13004341670376
H           6.53791273144678    1.22094675103581   -2.99784001446360
H           6.91004264019498    3.96823205054464   -4.34822119580453
H           9.17111954878156    0.98470594704049   -3.32230118397469
H           8.47845498202093    1.58793371541234   -1.82012937952450
H          10.09997009162683    2.09078093078451   -2.31086282491139
H           8.94897511043126    4.92672348473767   -4.29917214119229
H          10.27196137586402    3.75661930367722   -4.40958691683831
H           9.44111884317360    5.11313314847060   -1.92619297657840
H          11.55754454013006    4.87654317010067   -1.16133352370122
H          12.16139431203353    3.27732191407770   -3.71254987598988
H          16.45263980907724    3.70815189695671   -0.07641779894667
