88
 SCF done       -166.496847938473          0.000917184631
C           3.59976498647385   -2.09952786002124    7.04475178906252
C           3.11104892620770   -1.16165677191216    6.19283219113719
F           3.44351863863787    0.13269152440254    6.24168480239454
C           2.20775592397014   -1.68867789909043    5.23892996101140
F           1.62875302502589   -0.90299993723191    4.31987645191453
C           2.00082103398698   -3.04167111054665    5.35881458234515
S           2.95593246323285   -3.64441303291283    6.68611325996496
C           1.16627956515171   -3.93932777742202    4.58753452331913
C           1.13245120151149   -5.29911949320595    4.92847978538264
C           0.34804969609481   -6.16103776770397    4.20509759641915
C          -0.42146093738836   -5.69220920055788    3.12517876571263
C          -0.39499484077636   -4.34857864260526    2.78166173724316
C           0.39530679387281   -3.48195356241190    3.51135406175949
C          -1.14006039142581   -6.80953613699505    2.55535476180622
C          -0.81359233601024   -7.97013919676626    3.28294522021264
C           0.15957723266103   -7.64699265462256    4.39245845048743
C          -0.44018836094328   -7.96504362778992    5.77526080349124
C          -1.76595123505099   -7.25590894400259    6.02397440780489
C           1.48747447755100   -8.40767498529492    4.21897742544430
C           2.15280705199527   -8.13909858863066    2.87461018855245
C          -1.36272828941008   -9.18247483616052    2.95679611426689
C          -2.26926220983174   -9.26992711323565    1.88281575155027
C          -2.58182798278394   -8.09916502116748    1.16738618080239
C          -2.02839485375160   -6.87919501873258    1.48961507021608
C          -2.89569758372030  -10.49840371477006    1.49750740073598
C          -2.69238760365910  -11.72501839931279    2.05467801057292
C          -3.36721859734111  -12.88280142659108    1.64012905989992
C          -3.17914476738609  -14.12722516210749    2.19447206305844
C          -3.83966894707203  -15.32723081616210    1.84792034490477
C          -3.45150329087016  -16.41112517992314    2.58090129389908
C          -2.45931021933168  -16.12471120872103    3.54033380001364
S          -2.03336055573390  -14.43607507564194    3.49228321398316
C          -1.85951043447698  -17.00984031880767    4.42887318098297
C          -2.12517009698794  -18.38362928652946    4.58332476821478
C          -1.37009141490167  -18.99463663195111    5.54579210299516
C          -0.46491825808518  -18.13762337187564    6.19894133420409
S          -0.61581153953254  -16.51225092493845    5.54340859419247
C           0.47432313499674  -18.32307060288018    7.19820473012120
C           0.85922862922396  -19.42423191014191    7.97225505516080
C           1.91365866437664  -19.19872226850750    8.92374142438755
C           2.35453990147184  -20.21509571083183    9.84139769664895
N           3.36591032105803  -19.95884882546544   10.68653355421740
C           3.94145323636086  -18.78244143111412   10.67776474314830
C           3.48630935757020  -17.76553609461963    9.78526389258720
N           2.49842266107535  -18.00213840119373    8.94394102140611
C           4.09027947750666  -16.48667529105303    9.78530694692272
N           4.59183319051880  -15.45602948745059    9.80846594973429
C           5.01799815368676  -18.52651467901911   11.56376490344099
N           5.89482222218287  -18.28054838537829   12.25851811769288
C           1.76377704806329  -21.49187405438586    9.90172546724343
C           0.81011503382529  -21.76377454409259    8.89775671403216
C           0.36093558311950  -20.75782697220822    7.95456888414051
N          -0.51853664685822  -21.26742082782967    7.09920594457676
S          -0.74664560872948  -22.83202624610966    7.41838283097609
N           0.25451472776011  -22.94797159639016    8.66019328068118
C           2.16929855615527  -22.42625509539421   10.90638878698797
C           1.54288185500613  -23.56974027830355   11.36202385869144
F           0.32905766745976  -23.98694433118638   10.98969263111598
C           2.27701377987200  -24.24833465953431   12.35779064199363
F           1.84467501286619  -25.37902961860213   12.93328150331906
C           3.45320073492189  -23.64035908262763   12.66733124699376
S           3.66164734432193  -22.18925585224327   11.77517968180255
H           4.29230189748897   -1.96371070073748    7.84939861646099
H           1.72659960804986   -5.65221837795500    5.75900353123999
H          -0.98222177757735   -3.97797655040082    1.95531603822451
H           0.41243735960048   -2.43991002055912    3.24033279932991
H           0.27822430951302   -7.66936377592903    6.54223028713799
H          -0.58626221049025   -9.04424954422375    5.85294936756163
H          -1.64175319880115   -6.17671653441139    5.96832059606795
H          -2.14383675492990   -7.50780554714702    7.01193948921600
H          -2.50758537762273   -7.55418697643968    5.28600187141820
H           1.29324984929559   -9.47729401992305    4.32006120988698
H           2.16459662167982   -8.11402385818785    5.02338595510051
H           1.50240012944635   -8.43881390814286    2.05561726884960
H           3.08096802718965   -8.70044008682239    2.79957304867649
H           2.38064966040170   -7.08145684077594    2.76213974187844
H          -1.10718175888915  -10.06379086987685    3.52368744595740
H          -3.27684655355936   -8.16743000013556    0.34258796867021
H          -2.28334305265145   -5.99446698760760    0.92591749839964
H          -3.60497512754228  -10.42840878255391    0.68117567140709
H          -1.98496333098003  -11.84757609475438    2.86338507296807
H          -4.09067960545292  -12.80093129741389    0.83918352648235
H          -4.58304693489295  -15.35392657841961    1.07090980921164
H          -3.85052607539386  -17.40087046712527    2.45238679116133
H          -2.86180800333945  -18.89331368847493    3.98867184597200
H          -1.42808501999909  -20.03521191290767    5.80422256360554
H           1.03583320026359  -17.43049015733608    7.45268263499522
H           4.17708381144000  -23.95521100357814   13.39055079218586
