126
 SCF done       -188.222332931900          0.000730922869
C           5.02100174802403    1.25120101010557    8.90906808957061
S           6.33045652450323    2.33211270939806    8.66619636351524
C           6.55388767012253    1.78660614122679    7.01579329280771
C           5.63390804241438    0.80556205664021    6.69329544645334
C           4.74106583978356    0.48920232871119    7.78782936231985
C           3.73592190577143   -0.46494982262687    7.70115942380218
S           3.41537512612686   -1.39289002066332    6.29306133135784
C           4.60480161462646   -0.81278288143055    5.17834746762057
C           5.52064905498236    0.13792274601844    5.43993970318026
C           7.57569272190591    2.33745710193760    6.19379629548607
C           8.42910331868756    3.30400816711626    6.58985743144729
C           9.48444453456097    3.89788259875003    5.80950117188340
C           9.76620044626708    3.51148827871487    4.48882055956881
C          10.78984277012253    4.11733883550935    3.80654695325914
C          11.56405266446503    5.12538294619183    4.40991927750621
C          11.29652852682468    5.51882726143978    5.71401232695439
C          10.26673685095682    4.90445806238164    6.39582699171653
C          12.55953497838936    5.57121898334400    3.46224847589244
C          12.40598893966618    4.83658937592195    2.27209197541162
C          11.26058464204183    3.85862763633463    2.39432038513648
C          10.15192051026326    4.16562440102956    1.37010856819260
C           9.62569778973434    5.59165480981910    1.47826820167549
C          11.73919456108118    2.40635669381305    2.21509323411390
C          12.83804405057050    2.02156286256690    3.19828119415452
C          13.23059212372813    5.05030144081261    1.19879724626941
C          14.24544515754142    6.02139512043577    1.28065914697434
C          14.37471991008448    6.75498085500069    2.47260198293141
C          13.55173816712523    6.53823482592540    3.55721486342650
C          15.14695606932709    6.28924190817037    0.19619749699284
C          15.23756333373184    5.58383462908945   -0.96139712668345
C          16.13736122369086    5.87368782854992   -2.00318791314811
C          16.23786818896797    5.12283963677600   -3.14637066436942
C          17.10595620249983    5.32787416733525   -4.24646049701138
C          16.99053352352164    4.39960719016671   -5.23679204225975
C          16.02488968496420    3.40157121997082   -4.98014265387864
S          15.25452395067047    3.69175040092112   -3.43374155198188
C          15.68622207417807    2.31432954345593   -5.75857576324660
C          16.22052837353427    1.92268074513279   -7.00585058497557
C          15.68699038679480    0.77238946313708   -7.49720962716157
C          14.69295009895038    0.17193613258029   -6.67512731865317
S          14.46129335919164    1.17171220577240   -5.24570389515199
C          14.07443748381610   -1.01473187915553   -6.95721453327114
C          13.08585836232839   -1.74287705658940   -6.23099425859163
C          12.78034715113982   -3.05256581133805   -6.66442437675398
C          11.85419376383147   -3.80481180501079   -5.99322527340525
C          11.21411484574590   -3.28577918972262   -4.84791778410842
C          11.48429397190613   -1.98941729519124   -4.42327201523597
C          12.40361719797782   -1.23262895524937   -5.11236788230236
C          10.37128606822065   -4.30436139822914   -4.28427619879883
C          10.48322718533830   -5.46838054993344   -5.06921346083887
C          11.38727202736266   -5.21957343911613   -6.25982050545934
C          12.55743585335309   -6.21266393562881   -6.31328366942195
C          13.36121333505527   -6.22882656165756   -5.01796457683944
C          10.50207467650116   -5.31007177500791   -7.52431592977674
C          11.17070663384383   -4.91900689941712   -8.83556821028094
C           9.79958659806336   -6.60478966091868   -4.73175817770396
C           8.97453816585702   -6.62291375729538   -3.58680102389402
C           8.87395192652806   -5.44649245381292   -2.81891096560666
C           9.55808856905431   -4.30202872683305   -3.15493200781895
C           8.28259884660652   -7.82764691921761   -3.26421152738787
C           7.43756984966954   -8.03308301934812   -2.21055591853733
C           6.78350336091799   -9.23911873159537   -1.94494011104972
S           6.98884438043370  -10.64380070139888   -2.96411313862831
C           5.88003340312307  -11.60094242300691   -2.00260661524113
C           5.40464186098478  -10.89413591795632   -0.92774777985088
C           5.88772117917675   -9.52811364130329   -0.87964649720448
C           5.50250627023951   -8.63453183626431    0.08348896914680
S           4.41384934393025   -8.99156638828405    1.37571105259438
C           4.13034252909228  -10.69018347815154    1.15180382148674
C           4.59221467500377  -11.41985401053291    0.12642654233739
C           5.61408883642883  -12.94707688308694   -2.44240472303469
C           4.47433423330153  -13.61512660748783   -2.28445150351241
H           4.52062817081520    1.22499724423741    9.85506552239120
H           3.08685675312431   -0.68111321847233    8.53080959737424
H           4.54174611865698   -1.30120754925956    4.22025382217291
H           6.20806500650907    0.40912114304803    4.65205901704042
H           7.64013692881667    1.92886514010865    5.19589274116927
H           8.32558171555106    3.68639778568038    7.59862935601103
H           9.18146354251319    2.73952381041549    4.01224428439589
H          11.88371274760573    6.29121128659769    6.18838123179159
H          10.04966142493701    5.20157236056092    7.41229070723460
H           9.32930626766967    3.46345892853666    1.52336560414201
H          10.54848342353458    4.00132371106117    0.36605448046709
H           9.21072260965029    5.77419707095919    2.46705995659091
H           8.84482864198509    5.75985016840445    0.74005891279213
H          10.42473258656923    6.30852133197459    1.30391806132433
H          12.10757919026266    2.28312406013028    1.19454303308106
H          10.88599888274622    1.73670954772424    2.34494701684850
H          13.70524542820395    2.66605862363385    3.07387918399794
H          13.14696024075881    0.99228219743458    3.03054217062720
H          12.48602027592305    2.11393726262221    4.22343122345530
H          13.09685671579556    4.48280362629574    0.29109341569040
H          15.15108786844042    7.50480240444847    2.53570822431473
H          13.67734421469800    7.11171314763320    4.46393905316089
H          15.82241630937544    7.12453982895958    0.33819674145463
H          14.59807706435684    4.72629283509311   -1.12301034877163
H          16.79167574066411    6.72987623784150   -1.90409752048436
H          17.79129377636164    6.15727051402410   -4.26767397418525
H          17.57364874909147    4.40302007920554   -6.14071670325371
H          16.98548532783505    2.49494210557837   -7.50001976449507
H          15.97732802115015    0.32187662956205   -8.43057467053704
H          14.41544475693861   -1.49117220028144   -7.87011679626963
H          13.31357815910156   -3.45356022825246   -7.51423353778969
H          10.98373353168529   -1.58183499112651   -3.55749505361234
H          12.59877057584763   -0.22429594168314   -4.78587888229237
H          13.21903922438040   -5.94357720432670   -7.13783056423034
H          12.16355385765210   -7.21226492302654   -6.50960545318463
H          13.76758305146823   -5.24174794162345   -4.80839870741454
H          14.18711819052142   -6.93253023954531   -5.09617894530541
H          12.73373178856647   -6.52504471814122   -4.18039438587942
H           9.63266469014951   -4.66539270142363   -7.36960659759540
H          10.13921261025010   -6.33767251523449   -7.60137012326455
H          11.45749232272344   -3.87121289457340   -8.82568379001764
H          10.47117103076346   -5.06993548654782   -9.65540276053139
H          12.05106667468417   -5.52634094685474   -9.02894424886465
H           9.88375552611494   -7.50269968784420   -5.32791446117391
H           8.24611238362006   -5.44041232173434   -1.94105863740495
H           9.46719897918065   -3.41232996361677   -2.54899561841421
H           8.45014919214191   -8.66290518169230   -3.93425557079077
H           7.24060408839263   -7.22779938721319   -1.51796073640362
H           5.84776715720066   -7.61608177201730    0.10195568590362
H           3.53164474832946  -11.11491456287584    1.94030730078096
H           4.37394314273660  -12.47713002394298    0.10641884842700
H           6.42600467058375  -13.40564640530126   -2.99404063990809
H           3.60851636906761  -13.18178278128600   -1.81456566596549
H           4.36532028899781  -14.61929118149899   -2.65584737669572
