89
 SCF done       -149.854300313838          0.000312084822
C          -0.80534936417328    2.58725229230630    3.46575533156526
S          -0.32458284710523    2.28202941270414    1.85046853201179
C           1.30120895348667    1.86213870792965    2.34722715802290
C           1.42949033564544    1.92298517506258    3.71900246556186
C           0.21657623454547    2.36718083165997    4.37515263090775
C           0.11411243116079    2.55044592070007    5.74710435293924
S           1.39891034883204    2.26453955726206    6.85004786439659
C           2.63539702198539    1.61838829533670    5.82356050977959
C           2.56294408891033    1.51501562510348    4.48492343064100
C           2.24971914374334    1.55956837534069    1.31765515841345
C           3.57743410324715    1.75932915021789    1.38895421044787
C           4.47682761143129    1.41540107023307    0.30471302273575
C           4.22765389286946    0.29412082799710   -0.43283217734120
S           5.33820164255685    0.00371336185950   -1.70726803265930
C           6.18843689931670    1.45694577788180   -1.28488404283853
C           5.64653794206210    2.12436277083612   -0.17365004788953
C           6.24569119364968    3.34253736168568    0.23971184355277
C           5.67641912931161    4.08641689255233    1.42113339495520
C           4.41051717910346    4.85428338923238    1.03686441758519
C           7.32304623205788    3.86855096671337   -0.46008073093215
C           7.94453088799412    5.18590021206846   -0.07572098225003
C           9.05429376572066    4.99920366771769    0.96209086334634
C           7.87057622194600    3.17423524545702   -1.56462528859132
C           8.94020006598322    3.53601379098321   -2.46346493031361
C           9.08278466941479    2.63226370215390   -3.47113453202231
S           8.00502018892288    1.29364335684030   -3.39269927158244
C           7.27799933829070    1.96931936798459   -1.96852746169442
C           9.82157866359984    4.69165701920022   -2.39770340619148
C          10.05324808016275    5.48663706648945   -3.45175161110019
C          10.94483855154048    6.61725649494009   -3.40186010552584
N          11.70095563787468    6.81953849640859   -2.29328663311632
C          12.48628193297050    7.85740629994515   -2.30931985578370
C          12.52505248261580    8.73457231042843   -3.42311057396140
N          11.72667984421582    8.45080975124698   -4.47140183192047
N          10.96233474994629    7.41550294984529   -4.46496454396443
C          13.31256841870820    9.89978465467799   -3.53271989789358
C          13.17933028865527   10.70245427312545   -4.63912066921312
C          13.85316950217552   11.91563920429106   -4.92276707683036
C          13.46594943257136   12.50604640761828   -6.08899613315377
C          12.46892887920040   11.78220720716765   -6.77288455348000
S          12.04776654067238   10.30237557941887   -5.90252809102223
C          11.83382915377952   12.11071070353753   -7.95409757483817
C          12.02383330582103   13.22005149794913   -8.80360542033542
C          11.19800397918125   13.23516569750308   -9.88896497735756
C          10.30096843525053   12.14280741305859   -9.96316736684926
S          10.56869791385847   11.08372509936140   -8.58940512864459
C           9.36887454297128   11.96528199361379  -10.95966992123503
C           8.40862989040031   10.96947293640282  -11.15374119990995
S           7.39400647429130   11.13289231481755  -12.59091216307099
C           6.45923803851884    9.70249873793044  -12.27248759421392
C           6.91951024474631    9.12010535803134  -11.09620191227276
C           7.99884289769470    9.81662260228669  -10.47424250044623
N           8.29745896791786    9.10551903550555   -9.36063571813710
N           7.50487662895439    8.03266109521198   -9.23320035909424
C           6.67707018867405    8.01242301275897  -10.24516027958954
C           5.40368716148902    9.24968818543406  -13.11398709848786
C           5.00620518223886    9.85381353813417  -14.23745864424358
H          -1.80206421013670    2.91707279953130    3.67508691883231
H          -0.79192596924875    2.90497096257923    6.20503381539061
H           3.49972492459505    1.29266655173580    6.37798092436086
H           3.39056467908117    1.06077352073776    3.96098529484617
H           1.81678708412530    1.22382753018286    0.38393720371141
H           3.99429803054337    2.19881355383578    2.27925310812868
H           3.44086983878761   -0.41549206735523   -0.26548846081195
H           5.46252162697495    3.38328263461617    2.22450886382337
H           6.40633303938366    4.78670844830040    1.81982828669776
H           3.65248080944590    4.18143975829130    0.64414294397339
H           4.63855447418918    5.59264942564154    0.27123148231848
H           4.00081342416736    5.36846403915342    1.90378846927374
H           7.19100405670135    5.87164807615663    0.31101734427706
H           8.36202738537816    5.64809355885912   -0.97088399314188
H           8.65102759835630    4.62589731781250    1.90123467169425
H           9.55629046316220    5.94521572186055    1.15203154182815
H           9.78984505448552    4.27943856028087    0.61071621355587
H           9.81225285936267    2.66531787815359   -4.25673362202081
H          10.34770885482865    4.88874483762984   -1.47481883202067
H           9.53857500146804    5.35094016682171   -4.39148648091495
H          13.10169331355202    8.03022729369128   -1.43383368543011
H          13.99866665467096   10.15942180939482   -2.74146758504361
H          14.59516077894448   12.31378916835995   -4.25239264419995
H          13.86485439146294   13.43606673148284   -6.45581913914211
H          12.76079348737228   13.97402906126114   -8.59246288996885
H          11.20089427669353   14.00445070410750  -10.64144638141112
H           9.37252811243600   12.73294653665500  -11.72507156569996
H           9.00442023696041    9.27918709158614   -8.66535039393463
H           5.94848755704674    7.23356113170229  -10.34246727682902
H           4.91635964698683    8.34372609676364  -12.77632143805465
H           5.48291852438188   10.75540411351761  -14.58543804087010
H           4.20077067101185    9.46426494402127  -14.83312950012256
