126
 SCF done       -211.016872036448          0.000622528297
C          -2.89976100674788   -3.20051252988505   -0.03011993314745
C          -3.41357872215991   -1.96693465671702    0.31506756388078
C          -4.77543828185834   -1.68989531034662    0.19425822513054
C          -5.62382098803457   -2.68481835948028   -0.33411748429013
C          -5.09201428723025   -3.92527473705631   -0.67958149219319
C          -3.74525229369001   -4.18534474081515   -0.51979002336614
N          -6.98148844739059   -2.41874548218218   -0.55359301599725
C          -7.37564802984793   -1.18535034250185   -1.09052624889369
C          -6.56969227266405   -0.52933436003661   -2.02053255017555
C          -6.92569588548251    0.71904318409973   -2.49230880365862
C          -8.09448323356262    1.32456105461003   -2.06253466869514
C          -8.91483869625137    0.66314386619335   -1.16308708597639
C          -8.56260802746659   -0.58026008949792   -0.67710604031691
C          -7.92952556115889   -3.42177713047777   -0.32683143053903
C          -7.78223265566073   -4.29540672066951    0.75080881820853
C          -8.71469298069931   -5.28946864452887    0.97344002980429
C          -9.81057799400280   -5.42444167039003    0.13671775649379
C          -9.96407171510022   -4.55644015187760   -0.93190040522610
C          -9.03212324677994   -3.56490175923700   -1.16883919304402
C          -5.32184658521295   -0.41247115845034    0.60299552351395
C          -4.71953440842152    0.77819415614440    0.40707311380035
C          -5.31857257550064    2.02549022807731    0.70731396205393
S          -6.86319695242359    2.13880600067530    1.47695122378715
C          -6.88567474557357    3.88299715841338    1.43184782025776
C          -5.72813453308917    4.36112860563986    0.77498445731860
C          -4.84098135914425    3.30635860907118    0.38944662957841
C          -3.63272126572956    3.60332685093866   -0.27009333523929
C          -3.33500807202252    4.90268454085963   -0.56086102800518
F          -2.18881203118521    5.20197762239891   -1.19767864523902
C          -4.22920185757108    5.93955762275287   -0.22677962318387
F          -3.92487210972413    7.20302873217698   -0.57378145748614
C          -5.40399110593325    5.68336429852498    0.42450410448320
C          -7.97181122002060    4.52287305083882    2.04179863864068
C          -8.09206787450791    5.85868769193741    2.34173165671961
C          -9.20963340247097    6.43494165176562    2.93914763437788
C          -9.29360908341328    7.78653937899626    3.22077902068897
C         -10.35702713278703    8.49261540209176    3.81545163989653
C         -10.14062998945161    9.83937398544354    3.93803130631412
C          -8.89395425669420   10.25999622731050    3.44465278265575
S          -7.99445812377461    8.89709593407608    2.82482756899576
C          -8.35320634244999   11.53756508153976    3.38821711667001
C          -8.90040089497573   12.76096484235290    3.81047382063845
C          -8.09000601072727   13.83701322039470    3.57266485323366
C          -6.85752993873713   13.51953574557905    2.96046195704511
S          -6.76697833823973   11.78780251858549    2.69666612449657
C          -5.93404343491221   14.43481949536298    2.49365838097722
C          -4.70295298501607   14.19204552505921    1.87603375923994
S          -4.14010102079743   15.35114946034486    0.69536140216233
C          -2.79190311545994   14.36923086967385    0.21562346388075
C          -2.72661188625549   13.21439901670488    1.01560796564176
C          -3.78336356697042   13.12465443154635    1.97213494856560
C          -3.74502003209195   12.11494437343648    2.94818996755091
C          -2.75049004387549   11.17900412452769    2.90234208653392
F          -2.69875686154916   10.21573106951523    3.83877086146707
C          -1.75535860176135   11.21870853140543    1.90411054495639
F          -0.79924691838499   10.27445621024688    1.89449889015729
C          -1.72727286551444   12.22404906672161    0.98069185428346
C          -1.93914968555622   14.72423892136109   -0.85040431556879
C          -2.01995746558739   15.88286634877628   -1.54921114348416
C          -1.20682877103102   16.25779742636259   -2.67182700473397
C          -1.30530790863029   17.55711910554546   -3.18182087049361
C          -0.57666456361304   17.99104819655300   -4.27839996481701
C           0.32987417903609   17.09827409939688   -4.87989100177992
C           0.42560237937229   15.79412390609212   -4.38669965019788
C          -0.32398501521155   15.37677489053931   -3.31398765172869
N           1.15949098006696   17.48650428474528   -5.93771258794432
C           1.32008806856528   16.61937225598257   -7.02293191307227
C           0.23323399338929   15.87325058041381   -7.48039667454141
C           0.38009441569565   15.01329038909898   -8.55097888736154
C           1.60489409123606   14.88670957253696   -9.18570547108807
C           2.68777264898850   15.62321643918479   -8.73363969053099
C           2.55353325114617   16.48021437645176   -7.65863163867334
C           1.86765534752786   18.68788067981216   -5.86336918023851
C           2.29592715109907   19.17417337966499   -4.62850767425047
C           2.98328080865172   20.36928641763812   -4.55146995143922
C           3.26303192903874   21.09374508039981   -5.69826012371128
C           2.84461217694174   20.61235498546607   -6.92791176587028
C           2.14877518135589   19.42296388743657   -7.01487378260793
C          -0.83019830858635   19.34398180214976   -4.78389442097511
C          -0.95958802637246   19.66809300845998   -6.06160693269366
H          -1.84515757787176   -3.39911991746032    0.08627284077629
H          -2.76460121441935   -1.20751349111668    0.72532617524828
H          -5.74666577082790   -4.68185758124735   -1.08718555354359
H          -3.35137476191596   -5.15285198507054   -0.79249325670878
H          -5.65946869038107   -1.00102567251855   -2.36115916664953
H          -6.28638375944237    1.22094713153441   -3.20367941111929
H          -8.36508103034735    2.30404742118045   -2.42660414933339
H          -9.82948575458238    1.12671528515432   -0.82386044951138
H          -9.19366862446378   -1.08388076492834    0.04081135305530
H          -6.93306999146830   -4.18655812561747    1.40971490923816
H          -8.58859836526565   -5.95888330416750    1.81169237599383
H         -10.53893931611633   -6.20071255834410    0.31558528331259
H         -10.81210787436753   -4.65753845983254   -1.59330522756792
H          -9.14822642702817   -2.89811251245699   -2.01072450428341
H          -6.30890019446176   -0.42475054567996    1.04728552387140
H          -3.75084808521946    0.81438227287918   -0.07090566972167
H          -2.94592541721811    2.82416880343005   -0.55625501221046
H          -6.06554611428116    6.50721200513664    0.62618800619673
H          -8.78199260987233    3.86912578978276    2.34293000392121
H          -7.26811460897644    6.52564386183792    2.14031016908635
H         -10.05965914328803    5.81429312043766    3.18916258284516
H         -11.25355160320687    7.99218920406609    4.13734045180884
H         -10.84576697153128   10.52901816352758    4.36683142428570
H          -9.87124987158969   12.82450643302592    4.26842925732659
H          -8.34494138615522   14.85245635034309    3.82077746201201
H          -6.26107583922652   15.46809288521940    2.50030554201635
H          -4.46358419940508   12.07940968347942    3.74846181996605
H          -0.93116720345834   12.25475029709522    0.25541358823215
H          -1.18523287082280   13.99340316367961   -1.10322126095036
H          -2.76228786427273   16.60957981852973   -1.24054631283094
H          -1.99802301532117   18.24658005508223   -2.71879585579366
H           1.11588741207291   15.11169062422396   -4.86178481278675
H          -0.22245124723103   14.36057101451629   -2.96771873993348
H          -0.72445803365922   15.97651226285275   -6.99056750502889
H          -0.47049665615104   14.44484910521624   -8.89723751062279
H           1.71541864944886   14.21721079964220  -10.02505188037868
H           3.64899658364049   15.52229979367966   -9.21590306499206
H           3.40342600482522   17.04167046874808   -7.29936032718291
H           2.09034390021387   18.60630156810856   -3.73279004332411
H           3.31068728861471   20.73324197976773   -3.58853324203256
H           3.80346680582167   22.02589758207269   -5.63453391297940
H           3.05454287547552   21.17209486087601   -7.82759627902627
H           1.81386918902417   19.05904327398253   -7.97516586821868
H          -0.98737783431029   20.09636428946535   -4.02074022288129
H          -0.85828503120832   18.94344335584331   -6.85209148534146
H          -1.18829473857513   20.67478056836593   -6.36629075674772
