110
 SCF done       -188.479093031535          0.002172824546
C          -5.02619176032425    9.74841095477678    9.20044002893239
C          -4.72208109541853    8.61494135666015    8.47328580003634
C          -4.10940143467077    7.51509137513770    9.07111205681741
C          -3.77461503268326    7.58694438065061   10.43761124340855
C          -4.08473643890800    8.73700185099974   11.15918259662180
C          -4.71093445353143    9.80630168525021   10.54956622685117
N          -3.12430711324779    6.52122346658028   11.08461934020582
C          -2.06251834432138    5.85536357891383   10.47310277275003
C          -1.19135184749730    6.53868794181080    9.62134246135702
C          -0.18589871911636    5.86042389578325    8.96126287320841
C          -0.02025466928464    4.49598954982472    9.14090848669107
C          -0.86809763598095    3.81376409277058   10.00046409639442
C          -1.87851539493084    4.48244659234209   10.66305247808460
C          -3.53676656365735    6.15850220035036   12.37460352211559
C          -4.88798681876966    6.19871838628148   12.71580125887635
C          -5.29455766862399    5.84004506839493   13.98636901133251
C          -4.36746631510334    5.42875069519513   14.93060866394147
C          -3.02387213682216    5.38897569094287   14.59641356246456
C          -2.60603567952994    5.75563750561809   13.33154738135516
C          -3.79266729775657    6.31493083553174    8.31661498419497
C          -3.37379278114318    6.29338376559386    7.04666610587488
N          -2.90546177794138    5.13609927959883    6.46777216146670
C          -2.36533125141258    5.01495966710235    5.23518147818313
S          -2.75596809245814    6.12901215458178    3.96797220538582
C          -1.74801365929490    5.21903370442342    2.88038264154669
N          -1.62269420709490    5.68053757197258    1.57364273312779
O          -0.91186074438465    5.04663507490272    0.81120071427639
O          -2.23735286003996    6.69630490735579    1.28556897205991
C          -1.15125959423131    4.13636896152468    3.47130008122118
C          -1.47985369533889    4.00226616217050    4.83091882658202
C          -0.90443690344578    3.06543885442922    5.75833159045690
C           0.02835130398758    2.13717803686933    5.47631332018291
C           0.65003947288135    1.37080129741164    6.51662624940782
C           1.64252677614605    0.47677161686352    6.39355700191662
C           2.23761238874356    0.00910247405031    5.10538272447921
C           2.27176168128960   -0.12392257085650    7.63533545002535
N           2.31704737836100    0.81630625271043    8.72906977048657
C           1.57962289926609    0.78320949713970    9.85555707825953
C           0.85328616245635   -0.26568044342438   10.33498718922592
C           0.15347876998949   -0.20495068604715   11.55079534429595
C          -0.47422170562055   -1.27460680491124   12.13756610184656
C          -1.17893475266887   -1.29289121035283   13.36289326705290
C          -1.63075041244685   -2.52489146733999   13.73188491633880
C          -1.30614414700985   -3.55179043932837   12.81812905271347
S          -0.43577629816521   -2.90049665276497   11.45613022816755
C          -1.57399531450660   -4.90675579979800   12.93564621705570
C          -2.23704723552181   -5.57007437660524   13.98566886962485
C          -2.30934658066313   -6.92586082617770   13.82954990185534
C          -1.70564316052862   -7.40109644489515   12.64547195650355
S          -1.05150735661492   -6.06587001786478   11.73066889707464
C          -1.57332956889297   -8.70055936445890   12.17810856626923
C          -2.05849387025135   -9.80858601827347   12.85616754533867
C          -1.92233826118499  -11.12112242296398   12.43162412370241
C          -2.41233166533672  -12.28829640478108   13.11057281035560
C          -3.09890955277709  -12.33799546379988   14.30576146098498
C          -3.54326714200909  -13.52692425564103   14.91393280592602
N          -3.92942138841611  -14.45988194892763   15.46407510274959
C          -3.45175192232259  -11.22839801132669   15.09524183280893
N          -3.77428304476418  -10.37567449196456   15.79718743912886
C          -2.04474602037522  -13.45781158395180   12.31104599833816
C          -1.33182524772438  -13.01686105243570   11.17091791107022
C          -1.23322266412760  -11.53959781446385   11.20111690471864
O          -0.68578985204874  -10.84582464667442   10.36393167100121
C          -0.83472283328973  -13.87928958245221   10.22681971938763
C          -1.05457328095498  -15.24905399479293   10.41382373791091
C          -1.77476801480576  -15.67989195927116   11.55025258763496
C          -2.27665285350348  -14.80485897135344   12.50771303555528
S          -1.93701060927323  -17.41093926536422   11.58573123125668
C          -1.04141044664352  -17.52795625728565   10.09374088905921
C          -0.64341157053089  -16.33588024205524    9.59240635259514
Br         -0.71451813935529  -19.21565617435945    9.33951064581024
H          -5.51193115036821   10.58368772084590    8.71992532880326
H          -4.98947711768248    8.55636234525504    7.42924199345126
H          -3.82201184230343    8.78477067135242   12.20594514539474
H          -4.94288935656055   10.68969151590598   11.12448685028004
H          -1.31417697025473    7.60210025287414    9.48034969644515
H           0.47795893957222    6.40160702061955    8.30325954343367
H           0.76354246717593    3.97245441268832    8.61353451741446
H          -0.75571504175188    2.74788023337048   10.14488311478003
H          -2.54747783014513    3.94207211567195   11.31728620019099
H          -5.61322866526399    6.51201249242303   11.97838702219309
H          -6.34411349526207    5.87371730162728   14.23779281564626
H          -4.68955070056470    5.14350753963179   15.92032442778975
H          -2.29316156326427    5.07891892204363   15.32894283223871
H          -1.55588339646202    5.73838602815365   13.07826223472793
H          -3.82102839811579    5.38129646521708    8.86337664077237
H          -3.31204475534204    7.17544539950665    6.42783523904627
H          -2.80242697280590    4.34442339853221    7.09030904313779
H          -0.48990242199861    3.48824971707191    2.92700929791509
H          -1.20558024550122    3.17470875510365    6.79379752191023
H           0.36396358069377    1.99452737818289    4.46165905039018
H           0.28722982548036    1.59064442431679    7.51477867769489
H           1.62499972897762    0.28302276896038    4.25328092201210
H           2.34437113950060   -1.07517477310404    5.12021121297038
H           3.23201318265850    0.43708021487202    4.96897416014476
H           3.29503413171481   -0.43800659828562    7.40045324919607
H           1.71530973680259   -1.00981914618377    7.94701596160132
H           2.77251131445699    1.68773830847025    8.50502687686169
H           1.63394369355718    1.68830102179014   10.44805158209600
H           0.81409146090458   -1.20298360773407    9.80036199479047
H           0.11994068943891    0.73959075603752   12.07934298782216
H          -1.32376906547438   -0.39551262815723   13.93879952230036
H          -2.17675456836444   -2.72313721279323   14.63625766671284
H          -2.64050447785052   -5.04171208217199   14.83089499299844
H          -2.77654906804185   -7.58334681064555   14.54037129263499
H          -1.05799301381186   -8.85234820059764   11.24134054820474
H          -2.58015525501096   -9.63869243956952   13.78638298277164
H          -0.29199906675229  -13.51081795204513    9.37036702000661
H          -2.81785740287328  -15.18613368109732   13.35719652246511
H          -0.08215798080684  -16.22393476586213    8.68259104704186
