89
 SCF done       -144.491103681825          0.000239471727
C           5.10503618862241    7.09881184797389    5.04923718748847
S           4.08238545535589    5.89613559499432    4.42003307759807
C           3.24199535227013    7.02898483678514    3.39707508772240
C           3.76954540475300    8.32081084102289    3.55708514014094
C           4.84378198626214    8.34235099962567    4.51700466556603
C           5.52790950017724    9.54669096623759    4.84512933819046
C           6.63634191268022    9.52974263834516    5.84970067115125
C           5.13051878783936   10.68661055640239    4.21356081297891
C           4.08548298945704   10.67504534311141    3.26999674012919
C           3.39955600770651    9.54105518255852    2.92407116893348
C           2.30650022954750    9.64011987485748    1.90427305677989
C           2.18574725058271    6.55411328425933    2.58316845871385
C           1.77645329330364    5.26209322777616    2.51795907173033
C           0.70402717294537    4.81431850793797    1.70675031183295
S          -0.14921270179750    5.94059593932112    0.68497829336410
C          -1.16787051609091    4.68676971293184    0.10384456858547
C          -0.88365114987007    3.46760049471159    0.63045344362984
C          -1.69802754333566    2.26375781443316    0.28458435266801
C           0.20403602257109    3.51827792268711    1.56148045513052
C           0.73408747610338    2.41815915279209    2.31916253640546
C           0.65409945605369    1.10427113833380    2.02437555155410
C           1.20211376297390    0.08242817087929    2.86049588585324
C           1.06772933929429   -1.23003717275705    2.58391045442973
C           1.55035411509885   -2.34190594829546    3.36276998386976
C           2.65833988089745   -2.41974244329599    4.11276309103298
C           3.68668054607955   -1.34314968694935    4.24653421326149
C           2.97980140841073   -3.70559539153473    4.84300764545096
N           3.52046461366879   -3.48095936534275    6.16259356051910
C           2.87983378325955   -2.88613774279228    7.17295083661960
C           1.64883763208732   -2.28332252311580    7.12873759343190
C           0.98222360815531   -1.71798411619620    8.22931437044674
C           1.30522198160416   -1.79497311660729    9.56803971182205
C           0.61944636305686   -1.18919203666636   10.64654154418628
C           1.14724922047808   -1.44659968918729   11.88311369269478
C           2.28276916412695   -2.27601800599825   11.84709424350254
S           2.64971425288878   -2.72546442784333   10.20367977677810
C           3.13937464878264   -2.75704741363990   12.82685269955465
C           3.20319518488643   -2.57878358328563   14.21819215015980
C           4.26052472169148   -3.21962161934887   14.80432333609632
C           5.08658550419364   -3.93525877623700   13.90169802919591
S           4.45761240495198   -3.77266170295547   12.28210579910929
C           6.20819888111121   -4.66884255541260   14.20757385475369
C           7.03944667282810   -5.36794244660898   13.31023124778059
S           8.34380231066833   -6.35633001917258   13.96481785377218
C           8.90021068289661   -6.89470560541253   12.42378704710359
C           8.12883477064894   -6.34587106146986   11.43047492496767
C           7.09192556921047   -5.48887441768221   11.92844650503872
O           6.38606602683099   -4.96428590647110   10.90039486164347
C           6.93645842629109   -5.47761744360695    9.76919089571146
N           6.39315917324419   -5.11141738329867    8.53603265346196
O           6.89213727229203   -5.61459269944307    7.53432229960514
O           5.45923143080016   -4.31955400055631    8.49637831759762
C           7.99494474556331   -6.32007637460817   10.01790312859720
H           5.84443130896615    6.83209577026860    5.77693363314286
H           7.43410868134664    8.86106955102857    5.52743697749119
H           6.27226889950727    9.17651070646706    6.81417917097042
H           7.04906569076234   10.52713122269057    5.97795668198048
H           5.62051963313540   11.62463870419870    4.43151840629902
H           3.81904942159801   11.61132987993519    2.80048103378776
H           2.22340325011009   10.66571299230654    1.55118189914863
H           1.34675426169034    9.35170121686355    2.33151298014356
H           2.51465292869642    9.00250390568342    1.04604873965315
H           1.66492139990615    7.27269157353739    1.97306471041529
H           2.28789541241462    4.51717340725628    3.11196670798350
H          -1.93946657504775    4.92967959801708   -0.60046612657536
H          -2.63188233376482    2.57328423488755   -0.18028415932293
H          -1.92335198601102    1.68491250262204    1.17803892030167
H          -1.16727513606367    1.62552443653274   -0.42184372783621
H           1.26911602076559    2.69225167114551    3.22009998375868
H           0.18612906148019    0.76782865047276    1.11296972176602
H           1.69522202617472    0.40324611284074    3.76659385684468
H           0.48540374432642   -1.50788107188123    1.71220080248258
H           0.93698110894814   -3.23408941633368    3.28558209912524
H           3.66691357362040   -0.68224354778881    3.38349105580525
H           4.67810648318340   -1.78395585226254    4.33689508358953
H           3.50868301906785   -0.74775184351908    5.14262937634458
H           3.72954128541110   -4.26318729857961    4.27280326035265
H           2.07691629766047   -4.32562210025870    4.91130642697204
H           4.41777663487288   -3.88227201932094    6.39139205539656
H           3.45974503378583   -2.88782846595763    8.08204982506811
H           1.14305486347986   -2.20940426856680    6.17634579832049
H           0.07620265000973   -1.16759285376436    8.00489809002327
H          -0.24712254268568   -0.57192351060592   10.48101319906643
H           0.74720657882710   -1.06517910919932   12.80599387293007
H           2.48242746142973   -1.98498127469398   14.75299800553352
H           4.47637074366583   -3.19442490370540   15.85817813032307
H           6.48516738898796   -4.73795426512387   15.25071306057144
H           9.73528235445951   -7.55821557874543   12.35474745262512
H           8.57799068069206   -6.83167812822847    9.28094679867068
