96
 SCF done       -160.609902978264          0.000667217221
C           4.62281226428957   -7.25025995457311   -0.51769403890231
S           3.23034657075116   -6.27349316869006   -0.78224271358625
C           5.08547118554019   -7.19111422237163    0.76010710641632
C           6.30667706033455   -7.91894208942863    1.22255907962386
C           7.54889128342688   -7.02183080571875    1.13158922183096
N           8.67376857380877   -7.68896511358475    1.76247584385065
C           4.30789149908852   -6.32434732853337    1.57689828641009
C           4.53769914196188   -6.10091759212513    3.03945493018625
C           3.62906566087539   -7.00383048645961    3.88840320562080
N           3.96761994899213   -6.85066755469656    5.29055033914295
C           3.26349662674934   -5.76591519453786    0.87623055423038
N           2.35588733019201   -4.87955879529126    1.40898059453761
C           1.26870182312243   -4.30103457078707    0.85552857895135
S           0.73723880585593   -4.63305281607720   -0.75619089865023
C          -0.57486393696820   -3.50484349669572   -0.53940065605383
N          -1.47755922779927   -3.34317741303453   -1.57877412643567
O          -2.40100081475609   -2.55534984525815   -1.41589754843709
O          -1.29086435159906   -3.99986919132826   -2.59349826031421
C          -0.58086518373500   -2.91240527459652    0.69519251702960
C           0.46474657967989   -3.35415901050932    1.52191097887708
C           0.65226784574275   -2.93194886793888    2.87812433181023
C           0.06728884585252   -1.82240361369516    3.39789607621165
C           0.08769598134922   -1.45065534411297    4.75478008938542
C          -0.57000138549549   -0.34767276526257    5.23343648557577
C          -0.76805562606859    0.02105379780476    6.58822405836038
C          -1.57383847861971    1.10253763616320    6.76186010616208
C          -2.03412468522512    1.67565217363900    5.55286157536201
S          -1.38730739951622    0.80185150974806    4.18248766478504
C          -2.91390135336653    2.72214142039927    5.39257428326280
C          -3.63760178855684    3.40752549511466    6.39704746978173
C          -4.55841894514718    4.28356746263575    5.92189344037637
C          -4.58311931808280    4.39125294716066    4.50237865427106
S          -3.36328466861100    3.32359072078392    3.80900126345749
C          -5.39792302649836    5.12746041842832    3.69585895284268
N          -6.56509695668031    5.74062986370731    4.09996125955414
C          -7.40992900153158    5.30002847840076    5.07360146671375
S          -8.39192003262317    6.44904206743364    5.93376347332743
C          -9.03830723821114    5.15712645186292    6.90000745544492
N         -10.00278302370274    5.47814880038599    7.84782595492631
O         -10.45542060907594    4.57292912884723    8.53132926628626
O         -10.32724086084977    6.65531981275180    7.93048830280463
C          -8.51775794870911    3.92882962495641    6.57308966886696
C          -7.59864777399249    3.98459881294057    5.51679495140731
C          -6.93970551950428    2.84273524108903    4.91512884152760
C          -6.52845495682883    1.77595501805101    5.61986836629781
C          -5.72539677641205    0.67639120893140    5.17267792534255
S          -4.98212073794588   -0.25689561580160    6.45279815539473
C          -5.31205217987304    0.22850833853969    3.93265653351941
C          -5.81724267750723    0.74299983241899    2.62050128044173
C          -7.31457064804050    0.46224930838000    2.42947829899063
N          -7.54302814781235   -0.97359020759983    2.39472962973231
C          -4.37704772821327   -0.84194007862852    4.02499171233561
C          -3.70846567707240   -1.52502381674517    2.87418419514301
C          -4.58437588849095   -2.61998049232723    2.24840152606361
N          -3.80613490914009   -3.33851732288031    1.24797284253620
C          -4.11609441532747   -1.19484043792397    5.31532879002947
H           5.01551190996815   -7.82045343703222   -1.33529223932625
H           6.46159895750035   -8.80308543218158    0.60156813313164
H           6.19277355725952   -8.24422571337806    2.25642466186693
H           7.36905000582277   -6.09085860038351    1.67672399824614
H           7.72232595923067   -6.76038249033045    0.07348153126318
H           8.89966680758943   -8.54475896239349    1.26609423855518
H           9.49556578768342   -7.09565931319957    1.74686169370126
H           4.36036091595131   -5.05383988693170    3.30563253016059
H           5.57030383021233   -6.32946381265736    3.29683052582867
H           3.81181077876629   -8.04589639053352    3.61405562050799
H           2.57044454789994   -6.78229847614894    3.65981859295894
H           3.73728003994991   -5.91908096138305    5.61956906348642
H           3.46191844318017   -7.51837110187823    5.86020238613228
H           2.55893462699382   -4.59803265997616    2.36085420332280
H          -1.34915958955570   -2.22635059544487    0.99428505983260
H           1.26020278758170   -3.55125941941332    3.52683084511551
H          -0.48633364676773   -1.16868459506568    2.73857943581341
H           0.58905089425850   -2.09083797097820    5.46880786364907
H          -0.33132042605379   -0.54693145898785    7.39097656311747
H          -1.85361555700115    1.50185229354458    7.71997305999385
H          -3.47721948936742    3.20989349561855    7.44143721772994
H          -5.19543244495164    4.88532738786144    6.54452179779371
H          -5.16019143030475    5.23782552852646    2.64709906464026
H          -6.80168697558315    6.62051479796037    3.66093446157647
H          -8.83410751443163    3.02429105933588    7.05949232401434
H          -6.73902643870439    2.92576597472516    3.85970582757034
H          -6.71639996511431    1.77125071052001    6.68696320209575
H          -5.28028460398184    0.24949448922380    1.81306671750810
H          -5.63302661709937    1.81574975381442    2.53729125606770
H          -7.62864279378023    0.87028460962264    1.46447230532181
H          -7.89108633148554    0.96831859616766    3.22035045129653
H          -7.33742349556323   -1.37694564314451    3.30363702541308
H          -8.51368384252874   -1.17297073939181    2.18037009897717
H          -2.79037836426084   -1.99657260282507    3.22954902768907
H          -3.44062244070735   -0.79361025186253    2.10877565217730
H          -5.51031869769597   -2.17468050187801    1.85574655458029
H          -4.85972222840512   -3.33622581798890    3.02950988234765
H          -3.63273698104059   -2.74559254036724    0.43931686234387
H          -4.33167963002945   -4.13888058677251    0.91318315225226
H          -3.44543347579629   -1.95706181759758    5.66081201023798
