87
 SCF done       -161.615035486227          0.000316422331
C           0.52992305029748    0.16945004179575   -0.21002521196554
S           1.36535814874552   -1.21395464125180   -0.76790113000754
C          -0.43838127990356    0.60721665277903   -1.07105601295803
C          -1.28834447426507    1.80271258217778   -0.76778792874439
C          -0.89271881987162    3.02937771253967   -1.60100966050312
N           0.54310043623622    3.24114485249777   -1.52555010579805
C          -0.52293658027106   -0.19789685918159   -2.22806158773080
C          -1.43798707825800    0.07546037515893   -3.37592372074987
C          -0.67972268788548    0.74338691386575   -4.53551626489980
N          -1.63452536145438    1.32672102000046   -5.46210097222407
C           0.39514435234712   -1.24745726865592   -2.21960243068349
C           0.55253949651708   -2.23276105330578   -3.21091149009201
C           1.48969351926976   -3.23133555375464   -3.28178637769957
C           1.59286358414932   -4.17947067871767   -4.33135252932573
C           2.63071026808019   -5.05145071822614   -4.20180522815072
C           3.40304245297758   -4.84625921951387   -3.03893222385980
S           2.76439882843770   -3.51171890796043   -2.10730966726306
C           4.52947087758043   -5.55155032478619   -2.64244345297234
C           5.17303792120948   -6.59955633488614   -3.32770097911694
C           6.29342916928275   -7.07416635800879   -2.70493868570524
C           6.58834689995482   -6.43203038252706   -1.48671589173879
S           5.37997509370527   -5.19762183909321   -1.15870788984413
C           7.61016854191932   -6.60655274102415   -0.56980065675362
C           8.72526310486569   -7.43747598066824   -0.62846096559092
S           9.86082599971481   -7.42005103817277    0.72198066571519
C          11.01028650929744   -8.54258892062124   -0.01162730145065
C          10.48654785469404   -8.93890788761620   -1.26491792918407
C           9.24325612383037   -8.32812078074542   -1.57156149783537
O           8.77864446543306   -8.76198285022768   -2.75693213405729
C           9.70044830342833   -9.65298155314115   -3.21065440035346
N           9.44462037652620  -10.27903378780322   -4.44251702284690
O          10.27030201618256  -11.08560579481240   -4.83426751264396
O           8.42032804310294   -9.97671315951049   -5.02779564243743
C          10.75839656422958   -9.80393336261720   -2.34632758095124
C          12.15099284716264   -8.83222832930730    0.71146283987339
C          13.31512465850486   -9.50418886119093    0.36129010235073
C          14.38810582245380   -9.72638400108264    1.24448065317129
C          15.47551133557205  -10.33407691739116    0.67563091649312
C          15.31403404557385  -10.61163609069043   -0.69129438874134
S          13.73058170002360  -10.10306394856110   -1.22666828887390
C          16.23433557659529  -11.17708656486977   -1.56627576428330
C          17.53837746095741  -11.61930840864304   -1.26917332377113
C          18.22309912852669  -12.09951620652012   -2.34787862456239
C          17.49157330102124  -12.05891797980032   -3.55762523075364
S          15.89197197321484  -11.39918612857672   -3.26512838319598
C          17.86621574080136  -12.43057797603332   -4.82719692720416
C          19.11840901234887  -12.95162620188511   -5.20477286945834
O          20.11812824938603  -13.17686445153521   -4.32611393838349
C          21.18497843556158  -13.67188374239485   -5.00321978811970
C          20.87978646026963  -13.77134354703501   -6.34417710396300
C          19.56057907450676  -13.31366668082047   -6.48244581618162
C          18.78079980911560  -13.21870854714435   -7.73875260571514
F          17.65309084491471  -13.95820125902481   -7.71375536724403
F          18.38022453580662  -11.95923285692233   -8.01125957577120
F          19.47971172631575  -13.63106905847808   -8.80489409838239
C          22.39912472161539  -14.00494544281739   -4.31516044396957
C          22.58586773180318  -13.86680211736537   -3.00301224917035
H           0.79761657354837    0.59115219970370    0.73874407068073
H          -1.17596190894421    2.04390484615563    0.29165136743982
H          -2.34023674383002    1.57555862791504   -0.95280844874807
H          -1.48328942546967    3.89179747554832   -1.24411216730284
H          -1.14541449101452    2.86572413800244   -2.65037068748789
H           0.82572091382974    3.40773076555481   -0.56518386875585
H           0.81087686168977    4.05146847282593   -2.07268016837198
H          -2.23441664673610    0.75071538661522   -3.06579577655258
H          -1.90121372352910   -0.84889322713313   -3.72998390796219
H          -0.00254366349696    0.00723345832681   -5.00026976381561
H          -0.05987641019782    1.55176161845297   -4.13908248189404
H          -2.19313027629982    0.60096604073224   -5.89965876162424
H          -1.15514324078438    1.83451145884094   -6.19681276019861
H          -0.15439227592588   -2.19825315014636   -4.02957092839175
H           0.89708766688662   -4.18153695616301   -5.15201554657419
H           2.85817138078027   -5.83020338807796   -4.90686857569228
H           4.80859899019975   -6.97928552063926   -4.26487230356488
H           6.89565993823428   -7.86768875373827   -3.10113981197815
H           7.55358679766105   -5.99352855757433    0.32077436248993
H          11.58616025235806  -10.46148748733512   -2.50384606123189
H          12.15883866357698   -8.42835710530366    1.71752515203961
H          14.33438360350490   -9.43086814197569    2.27744807092405
H          16.37869615827562  -10.57248871174860    1.20707275710483
H          17.94153250833162  -11.57227301210158   -0.27338072935906
H          19.22767653170534  -12.47639805994225   -2.31287637917319
H          17.14934873410382  -12.31055281758392   -5.62513180838184
H          21.51822076378084  -14.12577442380846   -7.12699206392508
H          23.18253602202834  -14.38947549335823   -4.95233661494421
H          21.80930969732491  -13.48512946731659   -2.36294688412433
H          23.51715683636104  -14.13165705067714   -2.53584758422530
