74
 SCF done       -145.865676937484          0.000310456625
C          -6.20658616426263    1.69452404443443   -4.53892490397932
S          -4.75177661844188    2.43355891672892   -5.09431129789298
C          -4.71482459826062    3.63340253650811   -3.81688663912283
C          -5.82149346109561    3.42489584071540   -2.98772750881808
C          -6.64895309828271    2.33580893995998   -3.41485779220172
N          -7.66976764644808    2.25446905138388   -2.52626472248634
N          -7.54973026894624    3.21185384043991   -1.58250215598117
C          -6.46676952178620    3.91186384507771   -1.82737789764361
C          -3.74493280121041    4.64291750607318   -3.72248419152678
S          -3.91375416339206    5.85796820621348   -2.48427583148674
C          -2.51141951305642    6.74794376106746   -3.01462021591217
C          -1.91615443817120    6.08985380139594   -4.11590668486954
C          -2.60602587765020    4.90531118299159   -4.51276126766545
C          -2.11204965723339    4.14902907639633   -5.59002334301693
C          -0.98554522859866    4.57038062845025   -6.24069561388391
F          -0.50605179660937    3.85168337345121   -7.27048360162778
C          -0.31203529078414    5.74400029611609   -5.85219253131781
F           0.79167200504226    6.12248937642033   -6.52100279707765
C          -0.76409370792527    6.49719415594528   -4.80362018020614
C          -2.11658597922382    7.93986581879550   -2.41321878533049
C          -2.75827869069473    8.51247001622904   -1.33505775336282
C          -2.42079925579503    9.72915809527730   -0.76170563947007
C          -3.09788383985903   10.27236755315734    0.32006198143784
C          -2.89643674107298   11.51677377217729    0.94270478312471
C          -3.75609749755843   11.77412955304562    1.98073712220448
C          -4.66286657084263   10.73394060509228    2.23076337678972
S          -4.40985436738809    9.42069977006528    1.10633207822806
C          -5.66439268241117   10.62543191906426    3.19013086444619
C          -6.12244976283363   11.54912492061205    4.14219709691525
C          -7.16224172530212   11.08510884546391    4.90651671072041
C          -7.56065045853389    9.76687340477725    4.60850826608957
S          -6.57067599078897    9.13748064459406    3.30090124216404
C          -8.65185642377760    9.07217666238572    5.09999455703648
C          -8.93020390317155    7.73762602768420    4.78231739440702
S         -10.56886515902397    7.20541423221601    4.49432694629416
C         -10.05505595350638    5.70558480290037    3.77842721135982
C          -8.66511501146841    5.54269559662067    3.93179196083489
C          -8.03259759191035    6.68240622858241    4.51027191240336
C          -6.67640267367235    6.62131568633803    4.87505136683209
C          -5.96355459454797    5.48971499565967    4.59740283546916
F          -4.66782060909769    5.41263872996102    4.94554642611042
C          -6.57941344446660    4.37366993007671    3.99497567914548
F          -5.85065162380540    3.26532833606756    3.77069053172116
C          -7.90965087357157    4.38093491831147    3.68431324621663
C         -10.97271021689929    4.89665309943584    3.07543982998865
C         -10.60606225875653    4.11019961171809    2.02578225171250
C         -11.44487245034558    3.26997611210046    1.27139326388545
S         -13.12387343987717    2.91518001351301    1.63408334040437
C         -13.30790788161373    1.84580770866913    0.30222429780182
C         -12.14120828358276    1.74920586199965   -0.41777421113893
C         -11.09639820721276    2.55845458756420    0.13199193937950
N         -10.01127817083058    2.38425160323327   -0.65395543716442
N         -10.29185254951665    1.53710825757003   -1.66533537071255
C         -11.53381836855533    1.14001549340791   -1.55154003738415
H          -6.61895766949611    0.86123922599651   -5.06748788469378
H          -8.50367894664017    1.67411545176375   -2.52554829612382
H          -6.18474545061783    4.72017262501867   -1.18374388555450
H          -2.59257465486440    3.24208914146600   -5.91383069459068
H          -0.22771329881089    7.38766907248404   -4.52062410316743
H          -1.25895312605979    8.44573569212766   -2.83437485763070
H          -3.59997984448214    7.97853577549289   -0.90908583878293
H          -1.60341106084214   10.30276715769140   -1.17829028697292
H          -2.12990466660899   12.19533262242106    0.61153517633608
H          -3.74636805796457   12.67668474895478    2.56549222081701
H          -5.69539289276452   12.53158656788390    4.23678276220168
H          -7.64676369765216   11.65698917341789    5.67836324598225
H          -9.39555447072772    9.63327639722718    5.64994137057145
H          -6.20051720734303    7.43579857915204    5.39502921687583
H          -8.36779670008487    3.48241171593075    3.30664777074034
H         -12.01967882854344    4.98195116979768    3.33486657235838
H          -9.58342836091996    4.14657804578972    1.67527248949768
H         -14.25000879825196    1.36436035604579    0.13717605127180
H          -9.10190187341229    2.85222699880089   -0.65574120446813
H         -11.95807529518397    0.45255768842497   -2.25477192661422
