84
 SCF done       -163.850685030704          0.000523944404
C           0.98187361220585   -2.82096372565605   -0.98913583878519
N           1.41744448477422   -2.30021409543240   -2.17276818449785
C           0.47812008106844   -1.46858092645365   -2.70159422635442
C          -0.59201008931025   -1.45157821512018   -1.83731976685849
C          -0.25988696335194   -2.31363949032028   -0.75483717891300
S          -1.63162155143142   -2.30014863662784    0.37495459216827
O          -1.28775493706185   -1.68051455903995    1.62645468340917
O          -2.29087661295197   -3.57671578448522    0.43780733955457
C          -2.58297836062080   -1.14535208620329   -0.65798187033966
C          -1.87883054581241   -0.81926296895635   -1.76027348566661
C          -3.85799309017059   -0.77128941299800   -0.16485877460078
C          -4.71757651174895    0.08563041920702   -0.75414987923684
N          -5.92473137859931    0.40833658757893   -0.20387243055630
C          -6.82830323688915    1.28239299742683   -0.70205514803449
S          -6.53975342896341    2.11374504195324   -2.19508593876308
C          -8.05462297186613    2.94886826195392   -2.00609121231644
N          -8.42716441600288    3.84023193267614   -2.99854526618571
O          -9.50532260887293    4.41323683128510   -2.88069971290320
O          -7.65391012407817    3.99735328898584   -3.93409424319271
C          -8.72349427140628    2.60242098669015   -0.85973110726478
C          -8.04650757847553    1.63792268747345   -0.09093506711629
C          -8.52382203409935    1.07680883291225    1.13583115028945
C          -9.60692790292060    1.54007829466593    1.81493306200764
C         -10.10831939407037    0.98277283684159    3.00380789225877
C         -11.17358276792217    1.51621686502827    3.68665270876889
C         -11.77911494959868    1.02839326378603    4.87117860623481
C         -12.82496548647938    1.77987012375579    5.31617095856852
C         -13.10375995745407    2.90732773198143    4.51315261016042
S         -11.99012630456138    2.98170270277168    3.16364848337636
C         -14.07015305719882    3.87900813267471    4.68177810445617
C         -15.02621574458605    3.99447490613686    5.71840585297891
C         -15.81818420429475    5.09360251135065    5.61259026403147
C         -15.53161079957499    5.90717579187308    4.48271025138039
S         -14.21783675302432    5.20408277677630    3.54642645041728
C         -16.15636155535268    7.07744517187040    4.16360870481077
N         -15.85885087277976    7.83513204390261    3.07797306715826
C         -16.41240446080653    9.03532733633299    2.80216812315745
S         -17.50053355956028    9.80860684532912    3.91476921362612
C         -17.58891162623469   11.19003721255290    2.85906221177139
N         -18.39651299078930   12.24858952538882    3.25407218755715
O         -18.45905958201550   13.22553512029349    2.52254419841085
O         -18.99040300966493   12.12422128686362    4.31757983985190
C         -16.82689195641120   11.05621390580824    1.72559393720171
C         -16.15509482136608    9.82785628534981    1.66470500006285
C         -15.30764633490009    9.34515928947198    0.61875035112643
C         -14.70149099976545   10.01507934490096   -0.37951271208893
C         -13.80138207712771    9.27630712729988   -1.21404542823471
N         -13.00169479255461    9.78635284567190   -2.20581244441268
C         -12.18900217984557    8.81862718048497   -2.71835701936313
C         -12.46295995974162    7.64411893772960   -2.05121433826290
C         -13.48320373722372    7.93813168106872   -1.11771383713005
S         -13.88602462106706    6.45309762838823   -0.24202618002339
O         -15.20917530942444    5.98983163482481   -0.57260832645031
O         -13.65176763221318    6.62311493639536    1.18390523300036
C         -12.60813686857596    5.50297241898663   -1.11243788212153
C         -12.00013447983579    6.28136131366798   -2.02506624434496
C         -12.42383414224516    4.10825368522558   -0.85963934770628
C         -13.09737130172715    3.44364056764517    0.07632186044494
H           1.57902801164960   -3.49993245911176   -0.41555658196926
H           2.30908621705606   -2.50283130716873   -2.59582313726998
H           0.63617421056874   -0.96132792703398   -3.63181992454689
H          -2.22173286700207   -0.14848245179482   -2.53172514594297
H          -4.12184201807300   -1.23350724318985    0.77772096234730
H          -4.49266441377506    0.56768640611312   -1.69348809692112
H          -6.15089881855899   -0.02764220927004    0.68256052910348
H          -9.67154371827785    3.03550907193605   -0.60029303631525
H          -7.98818392300920    0.22885518991950    1.54266482362047
H         -10.13407969466173    2.40751908799184    1.44122180636290
H          -9.64203875639948    0.09317021928587    3.40518408969730
H         -11.42293345985506    0.13529236315255    5.35377767970664
H         -13.40066619579262    1.55501031329866    6.19620157035439
H         -15.09719201968408    3.26943634550036    6.50902537144681
H         -16.59723805644657    5.35626456870148    6.30576154694593
H         -16.93968029519402    7.45277744212602    4.80811938485834
H         -15.14746088261767    7.46697132850136    2.44041936007478
H         -16.78481109833128   11.81783541174862    0.96917201168599
H         -15.11033594395806    8.28690318718485    0.66063869408448
H         -14.81828313255399   11.07605820944714   -0.53865064917582
H         -13.01095419277893   10.74804610176963   -2.50653997241397
H         -11.48907123118661    9.03036608854823   -3.50122873977527
H         -11.21500722252602    5.92058515023715   -2.67131627916778
H         -11.70547418171018    3.61760515044281   -1.50550963826506
H         -13.81399420035785    3.94633957105702    0.70284994295337
H         -12.95630338998102    2.38909516051506    0.23861958206026
