91
 SCF done       -170.566934774786          0.000461366045
C           5.57655099621427    1.69371961733433   -2.39947837971207
S           4.57062669233660    2.96814986817108   -1.83859113641750
C           5.06997385433587    2.69081467069867   -0.19748980265029
C           5.97047697772198    1.65480456146940   -0.12908962104436
C           6.26476340052910    1.08769840208808   -1.39692978793600
C           7.23613662357797   -0.03807876504519   -1.55368870998163
C           8.25329509189721   -0.00036854981023   -0.41544141303193
C           7.52647277823531   -0.01418458270924    0.92478477581242
C           6.68708122427506    1.25600230589917    1.12049847138577
N           7.61539043300819    2.35303725598881    1.52226553451033
O           7.69673558287084    2.58485126447735    2.70514734877583
O           8.24240345249450    2.90896988891725    0.65577824303871
C           4.58374682731161    3.52492882379944    0.87362821728803
C           3.94987345053906    3.15831014992707    2.04008652614070
C           3.53713586730395    1.76502950820070    2.38897445604066
C           3.65971915540861    4.26093985708258    2.86012196892648
C           4.04706098247501    5.47314675548535    2.33504856863146
S           4.78686604905805    5.25008673750669    0.77551387640618
C           3.92411226081506    6.78391879728423    2.87025383270471
C           3.50973130079601    7.05803941144156    4.13244754750492
C           3.35977345709699    8.36424044712252    4.65859453104019
S           3.42564571486291    9.70522018336780    3.56187709090320
C           3.10034457986776   10.87757573868877    4.79387339648922
C           2.98678253486878   10.23962105308153    6.04236624593089
C           3.13078471456258    8.81289398556095    5.97291490755427
C           3.06718467659868    8.05284866953282    7.17371784032098
C           3.24066626835047    6.56550108702106    7.21214869900598
C           2.85794321097048    8.71879578933233    8.35459952509776
C           2.73181654320121   10.11409868978701    8.41996650899163
C           2.80211190733365   10.87040515148932    7.28772833542802
C           2.92466683028403   12.24439249123715    4.45703938455999
S           2.04100295149658   13.32196890600206    5.50482260973460
C           2.20674660744414   14.65215811608946    4.39963331877223
C           2.91186197052314   14.25958700105553    3.27492768047858
C           3.31533038676508   12.91662657352019    3.30274533831203
C           4.09384392834914   12.28901350266782    2.18801300771104
C           4.72192632816409   13.32998796122365    1.25518574537107
C           6.00665209612164   13.87961773820052    1.87256953470934
F           5.87307598125085   14.33229866727410    3.12344276281213
F           6.95574753534852   12.93456866033584    1.91363927479857
F           6.51439425717716   14.89768308700606    1.15618226175732
C           3.75514738769239   14.47156655505368    0.91045360548033
C           2.57335930188760   13.95004379405083    0.09476093746337
F           2.96624333029439   13.16972411032220   -0.92511877667897
F           1.68711905259088   13.23751621897482    0.79669197846872
F           1.88957590751606   14.96852853514695   -0.44921895623432
C           3.24583704317981   15.20193553967537    2.15695519256239
C           1.67840071126183   15.93563346971182    4.70138386538833
C           1.01203143867417   16.22584059421975    5.84058685331176
C           0.47366041388194   17.50230710286822    6.17711065758183
S          -0.36351416705071   17.69562331278921    7.70129630134667
C          -0.67054568101335   19.34027459918972    7.38405049742946
C          -0.16288040638125   19.73736135240051    6.17247970959647
C          -0.30665790529357   21.11626365994556    5.68121389074867
O          -0.86620440353250   22.00413413632481    6.27711725192350
O           0.26423067862800   21.28091207004845    4.47606166911981
C           0.17036160039350   22.58496212990386    3.92530262031452
C           0.48916089728365   18.68767603500707    5.48660194751541
H           5.60782123496197    1.47159715807138   -3.44740451459456
H           7.73572927638902    0.03361343956904   -2.52051402186265
H           6.69399852739118   -0.98947611180435   -1.52956017546520
H           8.85704032343859    0.90555074637609   -0.49860148935353
H           8.91956427422084   -0.86135217038133   -0.48094947064533
H           8.23635843372957   -0.10522906214997    1.75023143698386
H           6.85373229174606   -0.87396772183102    0.96617315330989
H           6.01181936814533    1.12826364582067    1.96984209933668
H           4.12100935677561    1.38892057948463    3.22999665013666
H           3.65667156002718    1.09753790749206    1.53879362877213
H           2.49049573314106    1.76045386722735    2.68957408347889
H           3.16061678391053    4.15887260006784    3.80681350458079
H           4.20771286825989    7.59587749598127    2.21327519517006
H           3.26957032287299    6.23269588645175    4.77820878768635
H           2.41298492731538    6.06469913095233    6.71031501331330
H           3.25991914831785    6.22369694646638    8.24462787269146
H           4.17497483144220    6.27034599350796    6.73740811322790
H           2.80805488478699    8.15397833617911    9.27424325564441
H           2.59428118426612   10.58664478327518    9.38046562683625
H           2.74063794633640   11.94342580740491    7.34687063697331
H           3.43406782508800   11.64175397377750    1.60273006166569
H           4.88578246029064   11.65301195221220    2.59392557406036
H           5.04261860256661   12.83806511849503    0.32910843438062
H           4.26158255264517   15.18492444326898    0.24904582736151
H           2.36446324342483   15.78988847096294    1.88813057828570
H           4.01266216024227   15.90354163435072    2.49792087710000
H           1.83689466527219   16.70626594791538    3.96138701291744
H           0.86444746283654   15.44260589329346    6.57271985040545
H          -1.20499648488386   19.94752037395583    8.08697100332122
H           0.67597897896396   22.54667594608713    2.96378784563164
H           0.65132935306569   23.31106737267551    4.58423671260177
H          -0.87659585096099   22.86869888575033    3.79815676413877
H           0.94554107196277   18.82036803536688    4.52411231034943
