94
 SCF done       -163.618281448148          0.000745963092
C           1.34950384750509    8.08811001565382   -8.87435054931878
S           2.53562296634151    7.50756736262351   -7.77567535604258
C           2.22650561085288    8.83341717857776   -6.68795302084237
C           1.25733147548947    9.67037708433397   -7.19836705499183
C           0.75044982301948    9.23367606544163   -8.44646323106248
C          -0.31895657959884    9.97858588906127   -9.18055561569402
C          -1.10883134214312   10.84626055208963   -8.20382626295281
C          -0.15130164524707   11.73023323527260   -7.40970857607071
C           0.76114692427185   10.90503659610568   -6.49138058853040
O           0.12343634777122   10.57639109099522   -5.26807188642261
C           2.90600775342375    8.97195383847203   -5.44158631256017
C           3.92168136215594    8.18894788959981   -5.03715949512674
N           4.54138477465046    8.35034671951185   -3.82610218276586
C           5.62396174335330    7.67299170505976   -3.38721576602724
S           6.39527401684986    6.47980922275077   -4.37949557229128
C           7.58780120065253    6.23918909614906   -3.13510241749130
N           8.57647487393241    5.28935319401309   -3.37090981810466
O           9.41754043033103    5.11146315048399   -2.50497104831373
O           8.52706815317056    4.69679764795533   -4.44026189635518
C           7.39437760704357    7.03240758640758   -2.03622183464514
C           6.26452036061079    7.86551680585483   -2.14779478074978
C           5.80061653346349    8.77145359460019   -1.14208495338634
C           6.50904740182250    9.13389517635001   -0.04099315988113
C           6.02089778952014    9.99380362605348    0.96054681114199
C           6.76063675073672   10.41481664758992    2.03418949798435
C           6.33586121517352   11.25166475061373    3.09734163130752
C           7.29751008559446   11.51999926960178    4.02109242886271
C           8.54703869062472   10.91943314725324    3.74022466166849
S           8.44753974058723    9.97664684083901    2.26678494076690
C           9.72213137460096   11.03265671425011    4.45039821499238
C           9.96066472732431   11.75562314466744    5.64306681213480
C          11.24537708906946   11.70372864685242    6.08315695381360
C          12.11081071215117   10.93919155932446    5.25673133496239
S          11.19756382598741   10.25587961072689    3.90803427171001
C          13.45060527077537   10.75853152022493    5.41860473070481
N          14.21044276778959   10.04867059630148    4.53865101308142
C          15.54013396671796    9.78494630129989    4.59415039793022
S          16.35859412633288    9.44311395508815    3.09474206352007
C          17.86440089332435    9.33862021249561    3.95342321475968
N          19.01347246822532    9.04452108935327    3.22533550847846
O          20.07121208342132    8.98129992171782    3.83255899307684
O          18.87781588048602    8.87344227676447    2.02224378829105
C          17.73075276930357    9.54831719434407    5.30128285024033
C          16.40451354963438    9.79099020775697    5.69975148443701
C          15.98249814245153    9.92613635738941    7.06991475310375
C          16.78904557797285   10.26914649540244    8.09228508499085
C          16.35214058070303   10.39035510853633    9.44369349612290
S          14.67392011907138   10.20213925482340    9.87408460677513
C          15.01511997530463   10.52293794495102   11.54968182478924
C          16.35849444505813   10.77252226404015   11.74083626130005
C          17.11767242955506   10.68660286928753   10.55398052308755
C          18.60067019109487   10.89377794471375   10.51880126883082
C          19.19424477440834   10.79014179716206   11.92093679145511
C          18.39373931293739   11.65439398987851   12.88523320951074
C          16.98427874605509   11.08372196814959   13.08035066473916
O          16.19508247291204   11.94107654093360   13.87828818569171
C          13.97103301939062   10.49015878417554   12.53550611229924
C          12.69139374504463   10.23790263684341   12.27047850214857
H           1.16082401587523    7.54441978601540   -9.77865457644618
H          -0.97595150677471    9.27808499458071   -9.69953106146127
H           0.14527942454150   10.61786388459717   -9.93796898896320
H          -1.68128525603462   10.20762971099319   -7.52571370133305
H          -1.81882335455141   11.46799174970627   -8.75113666752804
H          -0.70568657735936   12.43680054733251   -6.78932664380944
H           0.46904921059264   12.30017332651367   -8.10348463850978
H           1.61432822131132   11.52365706555247   -6.18591207040912
H          -0.64918999426647   10.03461539090367   -5.46526975486983
H           2.54355940503561    9.76354486055899   -4.79985579678329
H           4.30565481885166    7.38993939452909   -5.65454326306719
H           4.17433575128876    9.07470490685680   -3.22075831428698
H           8.04405634311973    6.98672628564027   -1.18204692777638
H           4.81015471265583    9.19063685986634   -1.26915512692061
H           7.51580496212568    8.76315253899068    0.09234889866744
H           4.99998284904812   10.34583477101598    0.88860593681656
H           5.32842459444030   11.62680046827088    3.14145927449193
H           7.14808666472663   12.13623869763725    4.88958987842502
H           9.17375481406154   12.29458749103692    6.13911530858758
H          11.60986851035223   12.19135857296486    6.96943121315701
H          13.95837441871717   11.21928540438110    6.25001210798457
H          13.73882895444803    9.77900677019101    3.68129334585739
H          18.56935614992970    9.48658371147248    5.96981033445392
H          14.94728364367372    9.69990178839791    7.28514941491307
H          17.82774565693454   10.50358322255312    7.91028946731712
H          18.81363538531861   11.88553408046375   10.10464362415586
H          19.06595166515189   10.15653415566238    9.86149794781559
H          20.23661730022468   11.11153058238441   11.90297238284133
H          19.16620182054623    9.75156422911932   12.25701314383955
H          18.31346607915529   12.66994798991208   12.48515954638346
H          18.88566711085944   11.71387123567869   13.85698550417431
H          17.04729778682016   10.15436009047460   13.66309186930854
H          16.10263382767700   12.78706418546804   13.42502042473446
H          14.29447163416663   10.69240670293942   13.54698747438841
H          12.35088117339244   10.03828337346484   11.26690349981546
H          11.94854683459779   10.21998928696110   13.04780542545831
