103
 SCF done       -180.089041948334          0.000467906764
C          -1.65765420607916   -2.34699005468353    1.25489523360594
S          -0.88975663066345   -2.99295635440503   -0.11493773676230
C          -1.72479202425833   -4.51383349150824    0.00938520921494
C          -2.60542492741049   -4.48642601543938    1.09180469376157
C          -2.55025636572690   -3.24124846177536    1.81016233578985
C          -3.36145233479911   -3.04843888649458    2.94372573366358
C          -4.22739227150939   -4.02159649226838    3.37213864368622
C          -5.02923093537637   -3.70309350521960    4.59510547012539
O          -4.90569448322240   -2.65235201874011    5.16975226401265
O          -5.88885424799791   -4.62410296591597    5.03522721823740
C          -4.31409875269414   -5.24069924062089    2.62729828116154
O          -5.20964933919162   -6.20182539319776    3.03263916569866
C          -3.53214969992173   -5.45763454522153    1.52685081828871
C          -1.37652058317823   -5.52006620180859   -0.94220006342737
C          -1.62759201168624   -6.83981142763055   -0.85841360917986
C          -1.25475273431536   -7.78149779198859   -1.89458437362507
C          -1.35374274598170   -7.42809046577759   -3.20893154796046
S          -0.95511644711033   -8.67291155122206   -4.32271524695014
C          -0.61065281820323   -9.74058431427442   -2.99709248885447
C          -0.80292745925722   -9.14779801855659   -1.74106298996620
C          -0.47709668578029   -9.89899404923301   -0.58536514988215
C          -0.57798119845408   -9.22420519571962    0.75995514259756
C          -1.95294582990085   -9.43201673844415    1.40258254846078
C          -0.05607980612854  -11.21872428030307   -0.69304041623311
C           0.25548828385726  -12.01732921212815    0.54749999007519
C           1.76305556772618  -12.11079308467179    0.78854226539454
C           0.12625772954460  -11.81519565880647   -1.96720234340166
C           0.64325491357874  -13.11088240707914   -2.36371656082775
C           0.73029774444727  -13.22682943545359   -3.72131259443899
S           0.18911065063924  -11.85817003244701   -4.60017208074734
C          -0.14679470731645  -11.04005074861314   -3.10651323870760
C           1.06319728119149  -14.21721330881227   -1.53105379945252
C           2.06678183091573  -15.05156530509275   -1.86417268810604
C           2.50542033420967  -16.16044605664595   -1.07998027957849
S           4.14140956858756  -16.70936914498759   -1.27135291878947
C           3.94032186935274  -17.85220617097664   -0.00317688595682
C           2.70264873852396  -17.82646474557381    0.55487839998053
C           2.29236587859729  -18.77144361663861    1.63633915552506
C           1.85020113106918  -16.85677735441532   -0.06707673615068
C           0.44930530875666  -16.68694407321583    0.19110607676500
C          -0.16062913261030  -16.80909153088711    1.39817628144369
C          -1.55797139077121  -16.71685540476132    1.62810969852940
C          -2.52092379540196  -16.60866431466706    0.66411295489115
C          -3.89784121762311  -16.58021901149855    0.91719139258045
C          -4.84017128796017  -16.51636674879389   -0.08446845330177
C          -6.24881906080732  -16.53629422994950    0.03277279078460
C          -6.91110419433082  -16.49462283585321   -1.16028808076719
C          -6.05679675565008  -16.43163828426944   -2.28080174902300
S          -4.38540488367418  -16.42215026557475   -1.77877518693043
C          -6.36985019942665  -16.38706893252025   -3.62875035762582
C          -7.62561786931378  -16.41358858250607   -4.26711363117931
C          -7.54769000059154  -16.36544030446967   -5.62766297935808
C          -6.22467014066448  -16.29310701226181   -6.13629372017861
S          -5.08320142337946  -16.29335913513714   -4.80955251838533
C          -5.88547590458999  -16.23025392587463   -7.46544766927393
C          -4.59625988725805  -16.14454421042377   -8.02479545905040
S          -4.42597062453928  -16.06775558066697   -9.77592361005116
C          -2.70875648097383  -15.97180234285323   -9.74432011815124
C          -2.25873509504877  -15.99699002350255   -8.44655871603896
C          -3.31898823235947  -16.09509874125611   -7.48885652569007
O          -2.81803909613617  -16.11715984164778   -6.23490976851945
C          -1.47068736281354  -16.03434268023375   -6.37424654459834
N          -0.69024283375122  -16.03441290613769   -5.20429273557416
O           0.51951950062378  -15.94403010665208   -5.35711996994606
O          -1.24598904738741  -16.11262147456729   -4.12731069895169
C          -1.06223742566354  -15.95791119451929   -7.68146044738045
H          -1.42602021621582   -1.35709171148772    1.59233450347469
H          -3.31430860159174   -2.12227709679981    3.49583304768390
H          -5.88816168062178   -5.41613530290498    4.47089561234099
H          -5.17357353893058   -6.95545314697921    2.43099591999434
H          -3.65436278108069   -6.37653438009016    0.97356345947606
H          -0.78867265234959   -5.15928812195892   -1.77707302210837
H          -2.14463705693315   -7.23319793304102   -0.00216597459828
H          -1.69521794475112   -6.48616082453268   -3.59186259231740
H          -0.38785191275104   -8.15850002407407    0.62870729273621
H           0.19523058108536   -9.59509474597568    1.43208983148974
H          -2.74742312062579   -9.18206421752629    0.70174414178004
H          -2.05301296031178   -8.81246502227248    2.29231921358602
H          -2.09419312457747  -10.47145373818845    1.68988350409077
H          -0.17436310772153  -13.01325427105888    0.45200209187252
H          -0.21250257481421  -11.57113910417820    1.42144444117826
H           2.26324788876302  -12.57647870468575   -0.05644715245638
H           1.96704113424282  -12.70233344278831    1.67859398525779
H           2.18389425853579  -11.11707060093528    0.92803790477466
H           1.07136340691214  -14.08525274656746   -4.26703631544213
H           0.54968041058664  -14.37684516112825   -0.59826846201724
H           2.65758781610831  -14.85074885429363   -2.74793827104692
H           4.75893286494473  -18.49515421096143    0.25517148307980
H           2.95827582436768  -19.63133395922575    1.65126698991232
H           1.27214240074730  -19.11376387887102    1.47552514395811
H           2.34469422806966  -18.28895202167101    2.61236434180238
H          -0.14337161507383  -16.44317492298337   -0.68138605338175
H           0.45126085903790  -16.95677116403121    2.27678046733942
H          -1.87967513979811  -16.76425056399403    2.66161409994949
H          -2.22714263165310  -16.56461240152137   -0.37643987104526
H          -4.24739821403681  -16.63421534473068    1.94022347264108
H          -6.73162187030745  -16.58916873464726    0.99316446530826
H          -7.98172574947630  -16.50856321175011   -1.26159141446204
H          -8.54662713175663  -16.47080593739033   -3.71448537884299
H          -8.39784222953074  -16.37858134770164   -6.28684948735192
H          -6.69985828619021  -16.24369251142483   -8.17727640954381
H          -2.15585630510849  -15.90439111900667  -10.65699628127963
H          -0.05103497003460  -15.88505208163394   -8.02381780304882
