103
 SCF done       -181.988916942082          0.000646133414
C          -2.38797276942696  -10.87540759560474    4.36609429007007
N          -2.76190864248001   -9.91323361811281    3.50905183422377
C          -1.92144370967427   -8.93504133298961    3.50910939132414
C          -1.34991360510505   -8.05510682920434    2.63104261438157
C          -1.19270502633512  -10.74180152341044    5.01493436776813
S          -0.71953998473906   -9.03700149895273    4.97642117437248
N           0.49062154809571   -8.38141620706233    4.06612240629645
C          -0.01538818001332   -7.76577535508625    2.99824734362204
C           0.81555670012280   -6.87183110669739    2.23814711206835
C           2.10260807298175   -6.64142485296423    2.55341474568069
N           2.90519968009379   -5.78911089694374    1.85504779809408
C           4.21249991174417   -5.52834439279357    2.10819305204619
S           5.04511116148625   -6.32066426129116    3.40341093896214
C           6.49714188359586   -5.47230086181046    2.96495453920639
N           7.64288362174397   -5.70811614965956    3.72228954880855
O           8.66335321740522   -5.11823842979391    3.40927923503934
O           7.53880349293180   -6.49608919299838    4.64988410898487
C           6.33546978772951   -4.63834751612689    1.89032242972838
C           5.02619871719976   -4.64948689069722    1.37774803585828
C           4.55795503138811   -3.86376669202561    0.26262808509169
C           5.35463033026290   -3.19808324535988   -0.59035680618612
C           4.92737586682704   -2.39913013045392   -1.71791817130668
C           5.89359060680858   -2.01369780451802   -2.66060005441753
C           5.52406273467490   -1.27532554070692   -3.75698879331007
C           4.18567474723626   -0.88398614691322   -3.93610793500127
C           3.22336233139645   -1.24184764635309   -3.00219764433996
C           3.59973705428684   -1.99471989891924   -1.90853027991094
C           4.08692944257302   -0.12927240465776   -5.16520076105149
C           5.36295497272678   -0.06368100156114   -5.75386802936609
C           6.38252906626226   -0.77460734139524   -4.89449436883591
C           7.04734418723970   -1.93876243293093   -5.65168889199412
C           6.03853149396073   -2.95112180135107   -6.18102601617049
C           7.46436805005575    0.20047270850428   -4.39225236533391
C           6.88517524060398    1.38329279223959   -3.62516393742864
C           5.54510735303665    0.57827094261542   -6.95191438308549
C           4.45273016390935    1.19044721999745   -7.59371885256574
C           3.18934286168418    1.12651937683828   -6.98341418803614
C           2.99933946694293    0.47255966181559   -5.78473759253827
C           4.68058449239386    1.83558122899211   -8.85876152806079
C           3.78307535880032    2.58727813923582   -9.53890163156318
C           4.00006747792879    3.19608568632205  -10.80749007240472
C           2.97543640725183    3.99579002337658  -11.37430488062501
C           3.10409553015056    4.62832617587669  -12.66046279060432
N           2.10981760561392    5.38271378982939  -13.13747508578719
C           1.01322246709541    5.53644657760312  -12.42695913566130
C           0.87675163506342    4.89568941627362  -11.15610000067988
N           1.84222272332879    4.15663076329514  -10.66795670757519
C          -0.31488158340819    5.05380696550724  -10.40511244121206
N          -1.29023947333637    5.20121802534821   -9.82243636407949
C          -0.03164427705575    6.34090680887768  -12.93882954026062
N          -0.89566608608060    6.98695901710682  -13.32673831351982
C           4.27214110716799    4.47204639062358  -13.47167484000700
C           5.29603513311623    3.67962437882272  -12.89528503473764
C           5.16923591866669    3.06274060147037  -11.59330995290642
N           6.26771189291762    2.37756018795001  -11.27265633454572
S           7.34254412953044    2.49066382668811  -12.46308364530249
N           6.47152974279286    3.41552734520540  -13.45171536271935
C           4.29772387681527    5.09543480274858  -14.72601743730503
C           5.21843292674956    5.08733531644611  -15.75187951235691
C           4.99353173474061    5.79442779783193  -16.96313282537864
C           5.97279131529706    5.65356452520313  -17.89609917837092
C           7.03113310906465    4.82120245058282  -17.46769860541673
S           6.74527043398005    4.24386399926661  -15.83559979609359
C           8.15818327011913    4.46193269293452  -18.17795322929600
C           8.50678723046883    4.85486431487017  -19.49967785933657
C           9.67262394856984    4.33515575800709  -19.94626699494931
C          10.33893605483556    3.48519500119236  -19.00234692846930
S           9.37824193292587    3.40161847300400  -17.51573903126373
C          11.49920646421084    2.83241481789595  -19.16232239368557
H          -3.00813295434489  -11.75446863427831    4.44659221215487
H          -1.80698020233816   -7.72297204704835    1.71911738795042
H          -0.83152240464187  -11.36346578904642    5.80960674353850
H           0.35305490960656   -6.38228883614722    1.39235420033196
H           2.54878022118977   -7.13947177847568    3.40151874651548
H           2.49252589560733   -5.31718561065034    1.05915286464975
H           7.14189946245505   -4.03717330520837    1.51360484590093
H           3.48630346655429   -3.82760683003192    0.12042582941844
H           6.42647231374476   -3.27518506856504   -0.46955063789543
H           6.92178621931285   -2.31510678786242   -2.51824947391537
H           2.19509301676430   -0.93652778153241   -3.12703614047126
H           2.85172781910062   -2.26007533809510   -1.17675716996565
H           7.74607127008495   -2.44067684503372   -4.97897064286674
H           7.62221627281227   -1.53030286231595   -6.48533754546012
H           5.46794667489319   -3.38838569404631   -5.36439051992954
H           6.55275238020326   -3.75116627828585   -6.70865358154321
H           5.34283808389948   -2.47601582977869   -6.86918542422921
H           8.02871868260317    0.56784771992381   -5.25190391242912
H           8.15577505200600   -0.34621025319388   -3.74739891279073
H           6.21098521388251    1.95804496138666   -4.25632602816095
H           7.68529632762919    2.03908502358559   -3.28958845885375
H           6.33117663754733    1.04262257003704   -2.75305832717607
H           6.52078846606341    0.62604934871095   -7.41433452406143
H           2.34251988313941    1.58579195164776   -7.46855913209139
H           2.01748729225450    0.42730316383941   -5.33739276021586
H           5.66363874104313    1.70082984169358   -9.28862365905812
H           2.80305479577659    2.78094106518793   -9.12708699672132
H           3.40604093235216    5.67902263827010  -14.92672382356864
H           4.10349763157942    6.38279173047476  -17.10239113777299
H           5.95579331211205    6.11781367371062  -18.86576906568074
H           7.87639755534470    5.51091964462126  -20.07303082310852
H          10.09733906169384    4.51723097632962  -20.91733624959872
H          12.05008667244002    2.91030199189312  -20.08300498158340
H          11.91349191843537    2.21609186692852  -18.38555942792704
