81
 SCF done       -164.723235129728          0.000876471604
C          -3.84673845334137    1.48914959371740   -0.08288860929563
S          -2.50280807996163    0.46205906119787    0.11292849353879
C          -1.46912121097938    1.80565820465558    0.49364895287258
C          -2.15750952245803    2.99752131623476    0.45694224112466
C          -3.53201443856492    2.80337752216545    0.12743404576613
N          -4.47790998354727    3.87361766340339    0.05547223731537
O          -5.55250576740967    3.62912783861676   -0.44265957969780
O          -4.12667732890660    4.94485026601637    0.50134932388489
C          -1.56307210905301    4.21600175481231    0.84047575546808
N          -1.02734554925724    5.14886112267556    1.23501817331051
C          -0.04004010921639    1.63261279792136    0.74023578453274
C           0.46357390994999    0.95664357956406    1.79546045671217
O           1.80696557758633    0.69690059350944    1.95073020114164
C           2.60380542914395    1.22365057249522    0.96949417964636
C           2.07305404073926    1.97853192643167   -0.11742817001771
C           3.02948529992121    2.41993518468372   -0.96893793714728
S           4.59848413478335    1.92152591261143   -0.45807707299744
C           3.95271607483390    1.10890669354623    0.91849580725594
O           0.72971443548653    2.19396302360405   -0.26498407689495
C          -0.35265891443310    0.45097027351677    2.88688393172680
C          -1.41349366397192    1.10583016277325    3.35778978551156
C          -2.37744577660022    0.55634830717079    4.35188232055041
C          -3.59289518093282    0.17672354476382    3.48594880662681
O          -3.64866111575391   -0.72158455823266    2.69816366497335
O          -4.57849473765482    1.05411530110596    3.66753746910023
C          -4.21032967223002    2.09344334950885    4.57279203225002
C          -3.00728310983284    1.53460455894354    5.35270289330807
C          -2.12450242104959    2.59765461482635    6.00166771723420
C          -1.80202756433089    3.79850307363672    5.11865910454347
C          -3.02543353801324    4.39631186333785    4.43695612848609
C          -3.95308192362338    3.38057810076599    3.75753054000078
O          -5.18221944630916    4.07605582045739    3.59544374565297
C          -5.30192407520042    5.06014892649851    4.50364057630930
O          -6.26698093550313    5.74995186896305    4.60569208730288
C          -4.02596807125933    5.10732751291281    5.35917495368092
C          -3.65643355020673    6.47501484325257    5.79737370223066
C          -3.46760819069774    6.78261094916477    7.09548191292412
C          -3.16680495686831    8.05047082092685    7.69021973292957
C          -3.06789070846659    8.02479664675921    9.04085515699569
C          -3.26365875047587    6.73891147675156    9.61246381564108
S          -3.58320920175367    5.55761985207336    8.36612361353896
C          -3.23744986077869    6.32927115090508   10.92553160918034
C          -3.03765013282359    7.05358139354772   12.12411452752893
C          -3.09264909246293    6.28145713607474   13.24211088269193
C          -3.32989323230843    4.89898731542760   12.99487121725546
S          -3.48947634982815    4.63188377749394   11.27376316452013
C          -3.42620553775137    3.91779587998469   13.94566934128538
C          -3.63372831956661    2.53712420944660   13.73427553367705
S          -3.78993014597642    1.46809627653694   15.12284782801843
C          -3.98620467467690    0.04378037312498   14.18265171309052
C          -3.93704196884978    0.35036255579941   12.84389776656383
C          -3.74286448475466    1.74919910014450   12.60069328433211
O          -3.69275646329436    1.98878543291779   11.27261993947852
C          -3.84875557132713    0.78280130754700   10.67089281401428
N          -3.83257004902945    0.76061646928303    9.26506477151984
O          -3.90077429043781   -0.32981461578186    8.72228771329819
O          -3.75459844195011    1.81971315392333    8.66952874816301
C          -4.00117691847817   -0.25202395702088   11.55852990420547
H          -4.81726550997022    1.10064812416611   -0.32373663232204
H           2.90186932159348    3.00418461751263   -1.85583441641350
H           4.59622009715276    0.59830479765518    1.60368615034375
H          -0.01101232385075   -0.47001442253287    3.33568803837799
H          -1.67678054605552    2.05863028272058    2.92750837359996
H          -1.96488598645191   -0.33272399315731    4.82931398237901
H          -5.07239790088979    2.26941968539947    5.22321443076554
H          -3.41253259618651    0.91976849864307    6.16381082772314
H          -1.19223850115223    2.12755127243104    6.31760545860446
H          -2.63565110593754    2.93732438723167    6.90443559949948
H          -1.07187330572772    3.52438642384171    4.35622682150904
H          -1.34283234531097    4.57306229223308    5.73564514292359
H          -2.69307242874318    5.11128119479239    3.67450579375673
H          -3.61624097206477    3.10202207152281    2.75610787780124
H          -4.21742877907823    4.48454819718253    6.24151946402602
H          -3.56557648137384    7.23871154272198    5.03976059356443
H          -3.05165134615183    8.93020036906037    7.08276173139455
H          -2.85947462036222    8.88389409573326    9.65399970780936
H          -2.86538571082071    8.11527746762143   12.12593056307150
H          -2.96876742326956    6.65177100937283   14.24460703162421
H          -3.33551061951668    4.22120775614189   14.97976683980170
H          -4.12021149417912   -0.90379293452914   14.65991859948109
H          -4.13864473190864   -1.28367163337516   11.30929336410217
