123
 SCF done       -185.387407058112          0.000322054622
C           3.79067689576820  -19.99005916534612    1.09217558006615
N           5.10881260967459  -20.27222718501692    1.11512109540201
C           5.74580304359114  -21.51844885575052    0.78871789422601
C           5.84505308533771  -21.71628475185049   -0.72243821661710
N           5.82973324990041  -19.20437992941790    1.43853579349158
C           4.97103597044473  -18.21517446427342    1.63644302976504
C           3.64768905183325  -18.66086190363785    1.42922588583543
C           2.37876728033079  -17.88240059024695    1.53781265582545
C           2.15060464789846  -16.99187217849216    0.31550299181855
C           5.43571429799725  -16.84760615440065    2.00121945277029
C           6.04821021888228  -16.13549488223591    0.77985407891991
C           6.39649294914299  -14.72650220293762    1.11377295216426
C           5.78556722554912  -13.67090224258498    0.58168276960130
N           6.07241146724233  -12.36621574997868    0.93400810963420
C           5.46401644293465  -11.26246435269801    0.45178200169269
S           4.22418583199647  -11.36991010457511   -0.75457734129055
C           4.03237877537425   -9.64093665459248   -0.69461619391370
N           3.08936013554876   -9.07106671164922   -1.53686290772962
O           2.94448484346391   -7.85840307187566   -1.50025626272469
O           2.46385563976493   -9.83283752244450   -2.26393766888483
C           4.87451589513793   -9.03713667594644    0.20477530293796
C           5.70958897449526   -9.94544076900582    0.87102143385712
C           6.70027924081846   -9.59971068480096    1.86362877263033
C           6.68361592911928   -8.47736785398741    2.59803315990495
C           7.66297435372174   -8.13521937383429    3.60999649070013
C           8.97294281330968   -8.63307842791038    3.57510480704929
C           9.84592721344483   -8.31269301225587    4.58530740879978
C           9.43396937400226   -7.50796019555641    5.66163744529166
C           8.14850495198113   -6.98730408604131    5.69265016126339
C           7.28270624791819   -7.29384208077863    4.66188056453057
C          10.53795331829537   -7.37571583618875    6.58642182417254
C          11.64352832164373   -8.07293503091422    6.06822941722185
C          11.29268838902478   -8.71854736616400    4.74730961548428
C          12.15944344237353   -8.16316864645606    3.60184955135067
C          12.06292845278563   -6.64828058276560    3.46844575410638
C          11.44590772857757  -10.24901614037367    4.81422526605968
C          10.60342347462634  -10.87870310693585    5.91710910558648
C          12.83213584433732   -8.10341618249745    6.75184898812924
C          12.93890954299378   -7.46529450002144    8.00088326261972
C          11.82142638713792   -6.78136477538542    8.50581693566756
C          10.63360199630192   -6.72426930417268    7.80838068350185
C          14.18621194372803   -7.53062100300226    8.71180117706851
C          14.36500495215294   -7.26052004210623   10.03058073373876
C          15.60717362959915   -7.31921982166033   10.68957368314392
C          15.76358755012185   -7.13033959954061   12.03897281799452
C          16.97185804745796   -7.12950708588144   12.77773155326538
C          16.81342050614370   -6.92416182000224   14.11532645988765
C          15.46953113867746   -6.76606425000350   14.51716247382040
S          14.40811787996323   -6.86161155813148   13.12770769018000
C          14.97322510598001   -6.58532945400876   15.79385299127881
C          15.69338208822146   -6.45502966594530   17.00168519963975
C          14.90297870664740   -6.30605432296930   18.09999761844523
C          13.50983911770970   -6.32105002370249   17.83409470824527
S          13.25323609444637   -6.51088638229807   16.10561697238065
C          12.51802723928856   -6.22049334729229   18.77434460198871
C          11.12009853806612   -6.28108783317200   18.58700631003452
C          10.19170695413506   -6.18269392547155   19.68493669140197
C           8.90684353227010   -6.30525401013501   19.20270375955590
C           7.65307829205060   -6.29093523845002   19.85611090946473
C           6.53502185354731   -6.45765892170020   19.08809454872780
C           5.14332437783826   -6.50227879021012   19.42250508284913
C           4.41400699628274   -6.70360870794788   18.26838922826837
C           5.33343425543098   -6.78813883289698   17.17034770019850
C           6.62355030852872   -6.64116085247336   17.64896042091762
C           7.86970790259509   -6.65030992314901   16.99507635771901
C           8.99745432767001   -6.48485644291928   17.76341473396176
C          10.37541383019678   -6.46011170789156   17.42168211243462
C           2.97685957779106   -6.81023687665659   18.20088035682958
C           2.26562448060727   -7.01687846812452   17.09567128793256
H           3.05742409759735  -20.73576626081455    0.85757598038453
H           5.17651305500933  -22.33662741065154    1.24028141715167
H           6.74415532943183  -21.48944392887443    1.23004252205230
H           4.85426843294078  -21.73416130409421   -1.17062406081114
H           6.34511347607004  -22.65524500228434   -0.94295161239252
H           6.41247789252249  -20.90294167021184   -1.16745316705193
H           2.40580758312060  -17.26046486698678    2.43651579967848
H           1.54413353164718  -18.57975871844613    1.63690141148783
H           2.94518088614683  -16.25532464813804    0.22597815913077
H           1.20211965336504  -16.46648628186373    0.40094356458969
H           2.13364385555617  -17.59204560549048   -0.59166766808244
H           6.19120299601171  -16.91858025922919    2.78590775331923
H           4.59340675441948  -16.26459270169400    2.37703386771441
H           5.33901739847966  -16.15855264859682   -0.04894182828461
H           6.94132297898106  -16.68818465119964    0.48127039920501
H           7.15879564138503  -14.58743281915344    1.86933212813553
H           5.01808850942509  -13.77239298125263   -0.17180923401060
H           6.76807347260797  -12.23096661251127    1.65602143163143
H           4.88805005302720   -7.97231940567926    0.34701988735051
H           7.49098653973739  -10.32200624510825    2.02261052482822
H           5.85536045913475   -7.78985764263445    2.49356745552084
H           9.29503979432075   -9.24330985296158    2.74400986932646
H           7.82982216548491   -6.35212778590971    6.50556364407556
H           6.27720455495922   -6.89768627056675    4.67292584281091
H          11.84479209082886   -8.62987925865221    2.66562811085266
H          13.19887637831295   -8.44558258315450    3.78290738638919
H          11.03851390731750   -6.34535060556070    3.26341175062271
H          12.69400737982615   -6.30337431384665    2.65249379150190
H          12.38734116740649   -6.16106312112621    4.38523317755543
H          12.49812964820040  -10.48856065165111    4.98152463249608
H          11.15802096296732  -10.67257335912082    3.84910953192525
H          10.88936730049297  -10.48355917163824    6.88915891332949
H          10.74456183278507  -11.95730117881124    5.92880294619404
H           9.54722173606993  -10.66929517906684    5.76096957634009
H          13.68804990411647   -8.63094623032026    6.35416441213698
H          11.90009576648164   -6.26935032237631    9.45231277306291
H           9.79011276969637   -6.18227177974653    8.20987520929659
H          15.04361549641737   -7.85823927745478    8.13577765290739
H          13.51464289755940   -6.99846333367949   10.64640672628336
H          16.49542405077402   -7.52116959596187   10.10520764554462
H          17.92126240586694   -7.27835347174632   12.29364008133537
H          17.62327349144412   -6.89325185731941   14.82244799033377
H          16.76835762916717   -6.47076508365765   17.02665445523641
H          15.27517787348288   -6.19282555507340   19.10345653963409
H          12.85328083015363   -6.09581932033463   19.79738417022249
H          10.47873059701994   -6.03953487512733   20.71200082061367
H           7.59685245525808   -6.15511469467737   20.92743897902374
H           4.74490308282084   -6.39724731681785   20.41531355584229
H           5.05948845257102   -6.94190428471609   16.14269511754306
H           7.92888698115974   -6.78713629464680   15.92467103596312
H          10.75622391276277   -6.56962765925349   16.42489134937723
H           2.46831119266078   -6.70970095282701   19.15215338743878
H           2.72523638174294   -7.12477340338668   16.12819905816682
H           1.19186753095858   -7.08637748018791   17.12162530284011
