82
 SCF done       -140.814571163589          0.000378290186
C          -0.76342675030733    2.13563442719531    2.98041026037116
C          -0.02189363130540    3.10652767289065    2.45103889440228
C           0.98143455347764    3.85412211407258    3.15612779019226
C           1.44137790345049    3.79879996281550    4.45750809711657
C           2.43495932672442    4.78048304408791    4.58475675246349
C           3.25125960199812    5.09547641590662    5.78648953716235
C           2.52837836841419    5.38875611984463    3.33661589918861
C           3.38878947806255    6.43418201622636    2.91229392348885
C           3.44357487642009    6.89049182446999    1.63885793682083
C           4.27913274361876    7.93350546797859    1.15870182661925
S           3.67349330429615    8.88433198421530   -0.16182826105584
C           4.99636818028728   10.00760919702953   -0.10112865713725
C           5.03527667853900   11.13289669331861   -0.94946703252383
C           4.09665798991825   11.42639202009295   -1.88789324030565
C           4.14043700296430   12.59308144786870   -2.68663351867435
C           3.25047626593713   13.04777881972201   -3.65221095176990
C           3.73202761742350   14.27692013863193   -4.10716417750822
C           3.11606087014907   15.17949955808066   -5.11467652898989
C           4.90721975926724   14.51356394472819   -3.39084142581577
C           5.76431391213806   15.63920959208258   -3.43011638529941
C           6.87894115542342   15.77456645079946   -2.67026264038212
C           7.69967735861269   16.93427754605182   -2.65973665038164
S           9.41236861511545   16.74475279642228   -2.46848655287016
C           9.73349129673220   18.43050883697139   -2.73110039968136
C          11.05777582665404   18.92991903387178   -2.76282930187887
C          12.17071399041688   18.17283641550141   -2.61636389047306
C          13.49126762493280   18.70196183748444   -2.67499135787512
C          14.71092124399961   18.06379601699277   -2.57431396879300
C          15.70454053305652   19.05808662849513   -2.71839447273077
C          17.17973870039163   18.86548179662990   -2.68805317648336
C          15.01824020288145   20.22874223799094   -2.89502205824176
O          13.69315739654880   20.02746091296448   -2.87099802359447
C           8.53326218794566   19.13101701550127   -2.90981925511736
C           8.35596289707443   20.52393830826960   -3.12392465251172
C           9.41891005220933   21.44529807737306   -3.24476066618742
N          10.20554731252895   22.27254465977535   -3.36524619906346
C           7.08073918534050   21.05207213865151   -3.21363673913858
C           5.95729655933976   20.24326547908918   -3.04975361122198
C           6.08320692650099   18.87986238665121   -2.85310709729994
C           4.88553879166293   18.18441488614506   -2.57613559606553
N           3.85729428233932   17.73970425814015   -2.32544425422520
C           7.37306865268477   18.28254040749784   -2.84222819259833
O           5.14371992678007   13.48796744410814   -2.54092689391648
C           5.91166670739558    9.62139330805781    0.88929101192998
C           7.13047558398069   10.25889244124313    1.23903826917939
C           7.59389379894141   11.45086261928908    0.64063669767479
N           8.05535790728966   12.41258338066856    0.21595449856335
C           7.94749592383071    9.70266237122846    2.20759760238047
C           7.61602304392282    8.49108896207960    2.81024143387458
C           6.43413028625964    7.83947181275057    2.50371244687196
C           6.27711637703940    6.55851519038325    3.07612115779594
N           6.28116106927558    5.51799713818662    3.56131654665738
C           5.52031992914917    8.42256947082876    1.58378787440008
O           1.64636422643386    4.81739871831970    2.48107129267696
H          -1.50001381286112    1.61293445209879    2.39694410159684
H          -0.65733719087511    1.83463736205095    4.00783447964437
H          -0.14621993652897    3.39265772226248    1.41520808738040
H           1.10432391815905    3.12978792354011    5.22267316481348
H           3.04001538692406    4.38518133942445    6.58107072752279
H           3.03100582853913    6.09958356620863    6.14879922339537
H           4.31142469852713    5.04926401326018    5.54067620980870
H           4.00050554719456    6.86640742992313    3.68783265288685
H           2.73174357182555    6.49615397605790    0.92514235475090
H           5.86452192298187   11.81288679174988   -0.82931289817685
H           3.25256327420646   10.77025247314476   -2.04766645969838
H           2.36067087302124   12.54372683290172   -3.97176214412236
H           2.19458378632025   14.74646905753435   -5.49379507100494
H           3.79513654403530   15.34713492904785   -5.94991536784201
H           2.89229497469397   16.14392261246205   -4.65986904194025
H           5.47579105445749   16.41109938153830   -4.12743680524580
H           7.21795687200678   14.93201933388009   -2.08237145041256
H          11.17723015424383   19.99018810220092   -2.92735708661003
H          12.09676743430995   17.10658970940915   -2.45313053113691
H          14.86775624112790   17.01578997862496   -2.41843737485834
H          17.48990530207102   18.19291091040194   -3.48657811007156
H          17.48517078839327   18.42398799765506   -1.74063295913834
H          17.68850983733603   19.81745367584099   -2.81325705598836
H          15.35844868701106   21.23488147488610   -3.04284889272103
H           6.95707992412005   22.11186920008663   -3.37871111523897
H           4.97326645673585   20.68772223803244   -3.05707872806966
H           8.87024433683805   10.19737755718705    2.47108644283338
H           8.30001990159689    8.03967651266162    3.51334972787596
