79
 SCF done       -148.478072226618          0.000500043298
C           7.64672271828648   -3.07056662196281   -0.67462786701623
O           6.93636959677566   -1.93587498171448   -0.69698546702049
C           7.71047327545223   -0.96573961145577   -0.15300561171947
C           8.92795707499778   -1.50564002992357    0.21536209391222
C           8.88568724967027   -2.87533435554647   -0.12371601291612
C           9.95971744527216   -3.88508277267985    0.07601883272258
C           7.22245772485727    0.36359200401717   -0.02958882518552
C           5.98388726106778    0.74375781217806   -0.43007365481829
C           5.46604930985119    2.05247187878904   -0.30306552493411
S           6.40774840640540    3.32742480817997    0.39829745549848
C           5.13223785702095    4.49552592843937    0.24444271139854
C           4.00995412274141    3.91462428288488   -0.36661585625884
C           4.19412919286754    2.52615384608833   -0.66884468750440
C           3.13026150530954    1.80532858981086   -1.27159567268069
C           3.20175029352638    0.43762424596087   -1.61613023750104
N           3.16382085250916   -0.66413174727672   -1.93507240776629
C           1.93987163392271    2.44899941329238   -1.56170366330661
C           1.77379387702268    3.80676592098409   -1.29607208553069
C           2.78842524520915    4.54665662695107   -0.71626345906053
C           2.55919508398429    5.93195761502777   -0.56029205740849
N           2.31029223326051    7.05100153142338   -0.51437451834774
C           5.26394987336173    5.80221733370345    0.75350514502111
C           6.42803247989103    6.33619491930962    1.20508007428510
C           6.57859086657081    7.63362744548300    1.75757057371412
S           8.12177272094905    8.42230947399989    1.57320616877837
C           7.56574664960644    9.90131018989153    2.31661589995265
C           6.23612707954451    9.76620761086258    2.71003175865043
C           5.69065495293093    8.48955655565871    2.40151935672206
N           4.39385463133847    8.14366297179554    2.87342329170748
O           4.13137844745705    6.96578080511512    3.03471555178158
O           3.63669511393682    9.05756881685158    3.12776327039098
C           5.52333040486036   10.76388869334967    3.39934063289107
N           5.01019273378561   11.61009047194558    3.98139505150696
C           8.46872134756704   10.98435905121550    2.40332383598425
C           8.20243213830628   12.21398759150292    2.92178596992666
C           9.12080981660979   13.27691525589303    2.94828046561157
S          10.74851127223781   13.19028859362609    2.28524389238699
C          11.12606657252656   14.84494618581614    2.68345983453308
C          10.02888955797041   15.43122476441943    3.31561865361938
C           8.92505822179011   14.54974736258781    3.45492456508882
S           7.61590599223211   15.36086372444153    4.24072353624380
C           8.64804519258339   16.78387762487932    4.31168326807399
N           9.82028023614716   16.68109102523298    3.81524820127981
C          12.37358736967728   15.41118428424451    2.35819239535449
C          12.67970033802331   16.70821249037211    2.64001494650638
C          13.90280139539656   17.33174970120749    2.32177499538761
O          14.90104404775526   16.65103566248952    1.69097428999806
C          15.92728148441361   17.50589100282492    1.51720935859712
C          15.63390537567429   18.74243617283534    2.01916749126310
O          16.39592183003660   19.86802885711692    2.03863360860634
C          17.67419351241711   19.75104162057462    1.45840026462980
C          14.31004594100615   18.65107213547916    2.55263235383763
N          13.56431178383856   19.61305070114301    3.16170063587100
C          13.93727946673274   20.91400175148187    3.39901551298560
C          13.14751472892306   21.79506059330813    4.00459787679581
H           7.17879661996937   -3.95009845054485   -1.07148635295740
H           9.74236095978642   -0.98070435200865    0.67184144557308
H          10.23965528771173   -3.93690736989101    1.12695832421466
H          10.84673686537620   -3.61206417834837   -0.49391441762918
H           9.62240521999468   -4.86582412544531   -0.24785960948597
H           7.90165066863796    1.07670977981233    0.41673784129001
H           5.33738515787948   -0.00032388623535   -0.87016915078992
H           1.13466584222428    1.89064201357290   -2.01504516073725
H           0.84560881251583    4.29329305997012   -1.55532593626529
H           4.36138538244609    6.39137923330495    0.77334316659951
H           7.34637819225199    5.77518000003350    1.08067371563058
H           9.45643699771276   10.80066794258882    1.99799907913411
H           7.23189967359789   12.43328283268480    3.34280468854962
H           8.27492109180903   17.68397147283277    4.75978396072823
H          13.09539294916591   14.78063139614338    1.86070146668629
H          11.93487418370766   17.31152205149261    3.13831415426702
H          16.79850678295053   17.11821671105647    1.02940879961408
H          18.13891720516715   20.72992667416747    1.55894415914271
H          17.60434382642013   19.48401071315286    0.39957357943031
H          18.27761809255395   19.00202118643407    1.98002473403286
H          12.64142995117262   19.33789123982670    3.47030035802846
H          14.92715341136760   21.16708600222912    3.05492567257301
H          12.16070346284041   21.53297375852599    4.34727009044123
H          13.47107782777578   22.80331047059339    4.17553917969162
