71
 SCF done       -138.459075632427          0.000336208633
C           4.41526013394492    7.07731804240030    1.11405990453558
S           2.77518591408504    6.62661670301217    1.26166052182963
C           3.12103375439142    5.02377571052040    0.69152929985165
C           4.46556758178723    4.88023536952029    0.37970667202905
C           5.20541865643277    6.07581464200937    0.61886641400748
O           6.52014210248644    6.32913128102364    0.35708156369131
C           7.46287835728966    5.31471695916930    0.63266634623500
C           7.32893945559619    4.08326242685249   -0.26132367497043
C           6.14525669501579    3.20582924238057    0.14128106827679
O           4.88897036066979    3.73550880296969   -0.22202858222352
C           2.15049988338708    3.96379315042324    0.66350733700706
C           0.80541130233335    4.11084069841852    0.39492201724670
O          -0.07579688630527    3.04579415777165    0.48620971512679
C           0.48022418855563    1.83440745302046    0.74918053821524
C           1.88011793886632    1.68249535866499    0.97160997176506
C           2.24131251229562    0.39583261417718    1.20737542640044
S           0.87412275061857   -0.65171558228521    1.16411360803220
C          -0.19318727820590    0.65993434855589    0.82233185430734
O           2.72216742253978    2.74858903399715    0.96743488349030
C           0.22036683124519    5.31968192941057   -0.04843244726952
C          -1.12046917802817    5.46409409403403   -0.27661082339660
C          -1.75664247893258    6.61317239672506   -0.77466851612298
C          -3.14698319196919    6.70494088756628   -1.00887554361124
C          -3.47742479863662    7.94288288459942   -1.52167661021062
C          -2.30721183761933    8.72432298116313   -1.63731066245017
C          -1.19429035972745    7.88642288144165   -1.15833378901368
S           0.37249796561896    8.39298476554545   -1.11782712066078
C          -2.10937870293737   10.00941340649410   -2.09210600984248
C          -3.03327637222897   10.90964760308614   -2.61699227407516
C          -2.73243547798885   12.20621417046987   -3.05555484406972
C          -3.80764196724821   12.89851671025665   -3.55757118138236
C          -5.00174179569895   12.16728092915672   -3.53427077331572
S          -4.73486062001688   10.58452005109972   -2.85444941598227
C          -6.26279603752617   12.57158736458150   -3.97681934324456
C          -6.62140379787669   13.80635324015771   -4.53897955135859
C          -7.94440732764472   13.89583146160727   -4.87639143222570
C          -8.69081907787903   12.73141910702552   -4.59470197977382
S          -7.65054386041100   11.51360807759071   -3.88410626857375
C         -10.03585776292295   12.55837587094793   -4.83189431793754
C         -10.80962250614611   11.42255465769372   -4.56856053295519
S         -10.22039476171320    9.91887543989256   -3.87111343859078
C         -11.75918525361029    9.15023747431671   -3.91296533651734
C         -12.71043268522939    9.99471069262166   -4.43858177966010
C         -12.16918755180213   11.26269860311188   -4.80260465320964
O         -13.12136987323436   12.06870623646245   -5.31152707885625
C         -14.26602587051641   11.33319494258112   -5.27758618374584
N         -15.44937606412975   11.93813931368731   -5.75731201972820
O         -16.46034018852014   11.26022204244413   -5.71464279432145
O         -15.38099363407790   13.07526684240388   -6.17385530420522
C         -14.09190096315264   10.07447606264019   -4.76434122259410
H           4.72756476174122    8.07546226935661    1.34349110421861
H           7.39920073483854    5.01630299679855    1.68999320937954
H           8.42733150466290    5.79922064053266    0.46213989172991
H           8.24287014541287    3.49352554525777   -0.18463954696339
H           7.20462438963794    4.40364027590043   -1.29758348206308
H           6.17264487014648    3.01335183195796    1.22411583998300
H           6.18940209232050    2.24977382167047   -0.38608292793999
H           3.21954158477842    0.01042261660820    1.40369470167413
H          -1.24205100290979    0.49035895061946    0.69931429909809
H           0.88148872192665    6.14497950842997   -0.24348237030291
H          -1.76950079538006    4.62308236796378   -0.06572688006509
H          -3.84245189444956    5.90816005942718   -0.81234412477690
H          -4.46842540078826    8.26149092594971   -1.78559774517533
H          -1.08709782060943   10.37076896324717   -2.04614796909335
H          -1.73443564298719   12.60323967200366   -2.99509090254260
H          -3.75334479472781   13.90209959030837   -3.93821975470895
H          -5.90875539398397   14.59803620379159   -4.68357365299085
H          -8.40264717516655   14.76246169389420   -5.31823803889330
H         -10.57251637316569   13.38882124192011   -5.27185742794621
H         -11.86523873302884    8.14748174447293   -3.55606010168929
H         -14.85385942341263    9.33257554637606   -4.64624575686523
