122
 SCF done       -254.918312931563          0.000429581691
C           5.10909797890346   -6.87244847311741    3.46182761808188
S           3.67871448484309   -6.12155527590759    2.92655968472213
C           2.77880094147558   -7.60586175185785    2.96735306619516
C           3.60048353306278   -8.65900100956988    3.39719521902103
C           4.93825641456972   -8.22256226979927    3.67670952628488
C           5.90742594398148   -9.16402142629172    4.12047134397802
C           7.29690048200345   -8.69220067211681    4.39772002945784
F           7.88739754694384   -8.14489820245852    3.31378776045944
F           7.34609124364009   -7.73922996420506    5.35222786570248
F           8.11635808813180   -9.67068414816676    4.80969036209909
C           5.54794163705627  -10.47225623923903    4.27758290976309
C           4.24075662540904  -10.90501105288038    4.00547577805872
C           3.26765220081340  -10.03348376829901    3.56944269446430
O           1.99500016360841  -10.39368697184376    3.28595603646940
C           1.61316334229582  -11.74214803421951    3.43332763512793
C           1.41908187604948   -7.64974783567015    2.59039445651144
C           0.71078890706014   -6.57234821331230    2.15577818532146
C          -0.63685637644837   -6.63757635524953    1.73958414752081
S          -1.39007526799528   -8.20181573270364    1.65468745158755
C          -2.82981525558076   -7.59366939811130    0.92172159060354
C          -2.77606610259598   -6.19595234798634    0.83287875380170
C          -1.53218112790291   -5.64344596359613    1.29674889679981
C          -1.38612362980109   -4.22799602708209    1.28730462567321
C          -0.15991974760682   -3.52133790388399    1.78064548559484
F           0.93548067830283   -3.75155018220094    1.02416287527371
F          -0.29969593237155   -2.18559955323683    1.78829504856539
F           0.17398726103578   -3.84627014947504    3.04517123134149
C          -2.42355110618756   -3.44242398048933    0.84693603057527
C          -3.64605843687997   -3.98010194891863    0.44165229471488
C          -3.85196360552159   -5.34053512370755    0.44934096949240
O          -5.01963433389663   -5.93350616691857    0.14908140640675
C          -6.15619261899957   -5.13994189053851   -0.10114978347179
C          -3.77295871127391   -8.56103762381192    0.48185049179779
C          -4.53015498896302   -8.47921310891226   -0.63729811964927
C          -5.39353793125552   -9.50264877681168   -1.11376810294863
S          -5.38883612301601   -9.75151245896487   -2.83161901748236
C          -6.28424956000100  -11.22642808896424   -2.72386002338461
C          -6.62454714788963  -11.49310848590013   -1.38768096779175
C          -6.17166142605686  -10.47993660725451   -0.47584666096321
C          -6.63540115884883  -10.53303554314013    0.86875654013059
C          -6.55037526088177   -9.38635156272630    1.83271788967760
F          -6.58120901954170   -8.18014712228903    1.25084632758487
F          -7.59771941632610   -9.38867822855867    2.68442370080120
F          -5.46360499905325   -9.40797905504464    2.63379930332986
C          -7.32911161374758  -11.63980734119400    1.29290317332967
C          -7.63318095586030  -12.70178021784333    0.43695832803246
C          -7.33202051991740  -12.63176579366845   -0.90458101382549
O          -7.65908412079738  -13.58087077878340   -1.80598987412111
C          -8.43410935490575  -14.68246397678102   -1.39042713736375
C          -6.60569642772902  -11.95778491485889   -3.88635920267724
C          -6.10990908667026  -11.68308832096127   -5.12009461676494
C          -6.45683401569419  -12.40474721698570   -6.29107393617428
S          -5.17046574323328  -12.78155420651213   -7.39174568950719
C          -6.11132231763905  -13.96354068364578   -8.24054337079613
C          -7.43744417663098  -13.94688238541944   -7.78327174895400
C          -7.64329275375770  -13.04361973080035   -6.68286956631454
C          -8.97090707023398  -12.83187979787481   -6.21942491864426
C          -9.39625149721870  -11.71609475844350   -5.30877397774122
F          -8.62256969610267  -10.62377481293761   -5.35932302322233
F         -10.63303758863767  -11.27857204799036   -5.62892046511170
F          -9.49059439455133  -12.06785403230612   -4.00769848836127
C          -9.98683983989900  -13.60462019736750   -6.73077924457607
C          -9.78275118708255  -14.50739782908105   -7.77572521403458
C          -8.54487339978219  -14.62985514138035   -8.36695474023086
O          -8.31261704584787  -15.30459610528924   -9.50806859369975
C          -9.38800233985243  -15.93821873870560  -10.16275115613160
C          -5.40768044334729  -14.80929248091847   -9.13429087950596
C          -5.68676944102040  -16.11783499004518   -9.36638368723726
C          -4.93173703707338  -16.94158134137624  -10.23413909126453
S          -3.76552570276846  -16.18653829084749  -11.27324096915063
C          -3.32386688630079  -17.66512373473843  -12.04003285846218
C          -4.05540054254589  -18.72956383128973  -11.50458379582405
C          -4.96369515995243  -18.32861689254909  -10.46049456464885
C          -5.72110573566396  -19.34145946394776   -9.80512925293572
C          -6.61513068600409  -19.08110634062455   -8.63140490630614
F          -7.73367500796652  -18.38523520215976   -8.94114677214899
F          -7.06858371774181  -20.21292197706126   -8.06568876335149
F          -6.01399069358169  -18.40827239554302   -7.63219226201670
C          -5.61710055144365  -20.64291492415584  -10.22669412686091
C          -4.76728871457044  -21.02383895160745  -11.26943870097634
C          -3.97176593477139  -20.09991869896060  -11.90095239880558
O          -3.10010244636435  -20.40503033876979  -12.88836224931703
C          -2.97068707540792  -21.74884949183340  -13.29490602634296
C          -2.32911287021354  -17.66520736977613  -13.07125092022673
C          -1.67363197101843  -16.57856464157456  -13.48308538542319
H           5.99881407555484   -6.29044997431306    3.59174455039077
H           6.27408156942690  -11.19540179565957    4.61549136674419
H           4.01944674924764  -11.94936018436052    4.14837832094082
H           0.56318364472699  -11.77885360165663    3.14729699775260
H           1.71926745832674  -12.07762128069229    4.46910578446009
H           2.19206148839745  -12.39607542297689    2.77444584197035
H           0.93880104099907   -8.61414624768042    2.65747310235634
H           1.22942925873913   -5.63178967309069    2.10178817971306
H          -2.31349833438958   -2.36959721549928    0.83631448801530
H          -4.42884632335329   -3.30241638773428    0.14581539109016
H          -6.97292799204684   -5.84801825329523   -0.22637071993435
H          -6.03929904544604   -4.54735535997737   -1.01402556449327
H          -6.37498928786375   -4.47775318285258    0.74104222098278
H          -3.76391686632283   -9.48963940323506    1.03718721056494
H          -4.38357149167864   -7.64906414366978   -1.31222214362011
H          -7.67624028863243  -11.69089660718444    2.31336450549464
H          -8.15554732786824  -13.54984299098280    0.84586857184814
H          -8.61465182713936  -15.26689456031338   -2.29114736004291
H          -9.39057290406577  -14.35984742263750   -0.97005278406400
H          -7.89793359122165  -15.29726750560635   -0.66116080569157
H          -7.27226424262694  -12.79402369216282   -3.75734372907986
H          -5.32134835824895  -10.94791377666289   -5.22287078419547
H         -10.99270529267964  -13.46857273789323   -6.36400956104964
H         -10.63379359881678  -15.04544856656555   -8.15704561895282
H          -8.95892973635200  -16.37476272827627  -11.06255094947933
H         -10.16683892913826  -15.22072668955033  -10.43750963885924
H          -9.81522899335746  -16.73461564787945   -9.54812130803192
H          -4.50418408241322  -14.38447838867497   -9.55593611561034
H          -6.52487072047935  -16.54654029721078   -8.85427574869628
H          -6.19442673126614  -21.41252241655636   -9.73940042665780
H          -4.74219647380355  -22.06404705105483  -11.54590908022773
H          -2.20922621986998  -21.74586515364321  -14.07318866768265
H          -3.90757411640652  -22.13479906692483  -13.70689660041674
H          -2.64187158532786  -22.38621826140680  -12.46909802966154
H          -2.12165040248331  -18.62338415618724  -13.51942704495695
H          -1.85657927051316  -15.60740784173167  -13.05284730176370
H          -0.93419555244086  -16.63220723203878  -14.26172701862949
