82
 SCF done       -144.346638277036          0.001663386292
C          -2.81103964909557    3.52868049089867   -1.74455632331373
C          -3.30320237389615    2.78676587377501   -0.72497607793222
C          -2.46132304019272    2.11364889987736    0.29790902900525
C          -1.05394537561450    2.17992968063736    0.24398955800473
C          -0.39413548435935    2.86989404603393   -0.71196628043329
S          -1.13449332637639    3.77172256758135   -1.98747053219919
N          -3.17425338467165    1.48703932540335    1.20541227862768
C          -4.48510012451203    1.68579814347381    0.86659563620974
C          -4.61236027687682    2.45869705453203   -0.30582519976777
S          -6.24949661205620    2.70740147143838   -0.74752569762899
C          -6.77608587250636    1.79029049300312    0.65962641553397
C          -5.72232093432776    1.31677606615144    1.41047602911975
C          -8.17990320579535    1.66165070565791    0.86865057502351
C          -8.77716371006974    1.14590204044449    1.95806708708337
C         -10.21955003973362    1.09856951250397    2.07390911938390
N         -10.72671853589287    0.69658020128869    3.24519785831096
C         -12.04387084618361    0.69012221884980    3.35264561747540
C         -12.88352456678774    1.06537586500025    2.31829483308711
C         -12.26698562103886    1.44585534798131    1.11520427003538
N         -10.93738622394112    1.46041328192853    1.01796590281182
C         -13.02039510726552    1.82455899948814   -0.05431712454911
C         -12.40528534265653    2.09392726104855   -1.23128671722922
C         -13.05200739560703    2.45568348755540   -2.42946947259095
C         -12.38921012434520    2.66625893036427   -3.60851011233924
C         -12.96260588760761    3.01683140501367   -4.86084576197984
C         -12.06518377604291    3.13068075900440   -5.87296413004335
C         -10.72293259516977    2.87777944605570   -5.48763925681995
S         -10.64516880373417    2.50552817353994   -3.77997232786048
C          -9.60102179090738    2.88238512932307   -6.28522968394523
C          -9.55421957458780    3.13052987319679   -7.68095872293378
C          -8.30834394962655    3.02816591332477   -8.20667640593750
C          -7.30293412550919    2.69585851342830   -7.25452841686616
S          -7.98986448115732    2.53342844701505   -5.65638442054573
C          -5.97563878530706    2.49955595706068   -7.49551162060293
C          -5.08484623048143    2.15642529444843   -6.43661379581139
N          -5.61964191227719    2.08822577063537   -5.20681116318243
C          -4.82424511559093    1.77606792760761   -4.20571682987340
C          -3.47484350962413    1.52428457105157   -4.39608620677481
C          -2.99531772599164    1.60384344792673   -5.71344455061991
N          -3.80311018823286    1.92057906783612   -6.71989724606447
C          -1.60323860549038    1.33005375008869   -6.01558053796604
C          -1.15732329550956    1.21753296529748   -7.27649620815185
C           0.18843945785087    0.89838202746620   -7.67253241451732
C           1.34592883347958    1.17754792647957   -6.99109017931787
C           2.69934704936639    0.75611593675209   -7.44074447155354
C           2.90750905260428    0.00749402663529   -8.61614877807550
C           1.89961334248350   -0.32388068739846   -9.45127557715532
S           0.24138403043396    0.07551175381262   -9.20809338975774
N           3.65474227559900    1.17441143852593   -6.64070313614095
C           3.03965114345567    1.89509496950452   -5.65983710970347
C           1.63867690392480    1.91473418230638   -5.82321790455644
S           0.88159455962215    2.88021023294544   -4.61744225590000
C           2.44159973169583    3.25187512625005   -3.89999686104220
C           3.48221110827640    2.64636281633294   -4.56164639337178
C           2.46692832288891    4.12519705041653   -2.75757007294425
C           3.53920146008511    4.38729530330599   -2.01365674191807
H          -3.43738577418047    4.02146556189852   -2.47230702000335
H          -0.49626250404830    1.65481381740160    1.00487371754129
H           0.68223736090826    2.91700755439739   -0.75061214002081
H          -5.84402562209596    0.73066055821484    2.30169520170230
H          -8.81592535201750    2.04067088162801    0.07892068990858
H          -8.22459820659597    0.77139484019350    2.80541644043275
H         -12.43485539198609    0.36842196316647    4.31089789905902
H         -13.95639107974594    1.05706682338519    2.42415253499264
H         -14.09670916657475    1.86974830365829    0.04050753850455
H         -11.32643480394787    2.01294171353775   -1.25557003554452
H         -14.12898256261471    2.56458201073631   -2.42782718159979
H         -14.02301548544285    3.16754805347522   -4.96469621197063
H         -12.32458322764733    3.38534793415674   -6.88499340678172
H         -10.43319652360859    3.36804741919255   -8.25395826896735
H          -8.06475998501888    3.17297887951599   -9.24468563173213
H          -5.57147759182262    2.58871159058988   -8.49062915968121
H          -5.28641208079103    1.72973044725339   -3.22802779262334
H          -2.82398724697564    1.26419920301007   -3.57741226009714
H          -0.95240863619037    1.17441988368484   -5.16869960259096
H          -1.88297402267647    1.30509295628311   -8.07548236909288
H           3.92094885577356   -0.28144486117376   -8.85017043223882
H           2.05640764855084   -0.87668556253341  -10.36257560370952
H           4.51357361286283    2.75492234869560   -4.28433524760106
H           1.51743382830412    4.58851638900354   -2.51813537213948
H           4.49867599512533    3.94450299453148   -2.21732677905723
H           3.48664821758649    5.05794781572674   -1.17406760603511
