112
 SCF done       -170.149260496403          0.000157486023
C          -6.03233373389767    2.21102380876848    4.93417705692592
S          -5.72679039169749    3.86341851174308    4.60390802138916
C          -4.52131070652507    3.44799532646794    3.41132649996427
C          -4.41398756897986    2.08083678049087    3.26064494441229
C          -5.27806686689306    1.38227878762814    4.15314025196056
O          -5.40243700263256    0.02905669398472    4.28560546122986
C          -4.23261594650758   -0.72107951802396    4.02509702186789
C          -4.04967120628604   -1.05789423235253    2.54312700896519
C          -4.30301133437381    0.15655665678422    1.64998927049886
C          -3.62043886972382    1.42561889428746    2.16621261110164
C          -3.85358114120866    4.52040117939955    2.74655825127527
C          -2.65251773689073    4.46475726924904    2.13203724444882
C          -2.06763052187452    5.55252673527353    1.43018627553610
S          -2.84582343704937    7.08916983705290    1.22284171066479
C          -1.54063240750980    7.67954575266556    0.22601201644448
C          -0.52348000821195    6.74556097934265    0.11503864814053
C          -0.83818313427796    5.54105775881787    0.78379451422541
O          -0.08394908014175    4.40441013039719    0.83258333493526
C           0.74572531620878    4.16571638368111   -0.28705551499973
C           2.09947768967431    4.87333782542251   -0.19906685678769
C           1.95062904889326    6.33163768679733    0.23542280203779
C           0.81578724504807    7.05361459928212   -0.49500848361688
C          -1.70097197022484    8.97575686979913   -0.33929571347098
C          -1.09970579271648    9.43203549949531   -1.46338904756522
C          -1.33177127979840   10.70559287874776   -2.04740471962832
S          -0.73977860453845   11.01091769128829   -3.65343354183209
C          -1.45729986293905   12.59785685787163   -3.68570974436687
C          -2.11799497916187   12.87371858222549   -2.49717185463348
C          -2.02847138233286   11.81196815036234   -1.57034165811185
O          -2.53271330862204   11.79548037763197   -0.30413012357079
C          -2.56840933799888   13.03886282635919    0.37021821037712
C          -3.83347540175781   13.84768634032097    0.07861666434235
C          -4.15665361708464   13.87286466252240   -1.41537221505506
C          -2.92200946445270   14.12706013641533   -2.28306719582861
C          -1.36996106705894   13.39935144769418   -4.85218209732494
C          -0.70844773787764   13.03848427334512   -5.97708593975636
C          -0.70322817352167   13.77763401258655   -7.18268275056795
S          -1.62181120590914   15.23162453616836   -7.42114965852885
C          -1.15252348631991   15.32127733663760   -9.10018395093110
C          -0.26782997997129   14.30792059090290   -9.43490610097061
C          -0.03617235796949   13.43021086249369   -8.35345175741269
O           0.73359805464029   12.30677175996946   -8.35437604792233
C           0.82975686444801   11.62283926980226   -9.58830821901726
C           1.92571962276292   12.17630976972341  -10.50119187884815
C           1.89325721112647   13.70355454602078  -10.56359990629383
C           0.47840915975799   14.26086926806293  -10.73911691931230
C          -1.73153703633940   16.36155087781050   -9.87788022636220
C          -1.86588004414761   16.38584817770611  -11.22348597404588
C          -2.51097130271892   17.42670511467829  -11.94189806083499
S          -3.17574927301465   18.84382777145257  -11.19388760825842
C          -3.74527826245183   19.44898402269316  -12.72361800169298
C          -3.40995748919369   18.60490350097250  -13.76464771374521
C          -2.72259574316345   17.45389985232303  -13.31353767526304
O          -2.27591348712231   16.40912234881565  -14.07042381032233
C          -3.06328314009650   16.08555033358017  -15.20007266592140
C          -2.71066116650363   16.90766056732184  -16.44153310978783
C          -2.55890547792833   18.39453138996614  -16.11914146759430
C          -3.67209432469143   18.92309975778053  -15.21140953479386
C          -4.47140524603171   20.68581104143105  -12.78729077911366
C          -4.75377833083754   21.45442760101121  -11.73706485215189
H          -6.75477495539114    1.92454176026863    5.67020189391612
H          -4.34276012056698   -1.64123793347134    4.60673820377600
H          -3.35708894457735   -0.17874373117747    4.40262333490252
H          -4.73886248546164   -1.85552993865752    2.26095531252884
H          -3.03044935154276   -1.42418385105254    2.40374716562060
H          -5.37753917862856    0.33934400158828    1.58164529109053
H          -3.94195978932072   -0.06659006526138    0.64383466237876
H          -3.53564229637350    2.14187473707780    1.34554790102502
H          -2.60494349843780    1.18876056682751    2.50004376372873
H          -4.36750834014695    5.47380584525708    2.77656455050916
H          -2.04721459960266    3.57145058416418    2.14989250613489
H           0.21909749772696    4.46306076344687   -1.20211295293523
H           0.89174526551132    3.08148343388936   -0.31246326641440
H           2.57248553220693    4.81752677795448   -1.18158542394821
H           2.73913132143451    4.35305009030374    0.51573725374114
H           2.89251051540580    6.85118605682591    0.04819645482470
H           1.75854554451378    6.37345079404930    1.30974730343977
H           0.83818154324959    6.79310615580030   -1.55816865099153
H           0.97296289973808    8.13187990990201   -0.41863158625703
H          -2.43344885103228    9.60499982546719    0.14402507520100
H          -0.44235295303786    8.78979339610608   -2.03087904024827
H          -1.67462705802179   13.61983467607932    0.11304669008527
H          -2.52029002797656   12.78914845362108    1.43436699902159
H          -3.67724312888255   14.86255500583873    0.44964814839219
H          -4.67749037828408   13.41485372706295    0.61781660464986
H          -4.89939836749311   14.65117186659364   -1.60103597045698
H          -4.59903474085420   12.91812595763674   -1.70797472918468
H          -2.30469544502651   14.91229560966689   -1.83454109045105
H          -3.24924148265536   14.49332444504408   -3.25728602158381
H          -1.88499346552718   14.35069163856334   -4.83914777163937
H          -0.15275992734521   12.11017607446305   -6.00489466061157
H          -0.14116037514135   11.65081247083809  -10.09786462564649
H           1.04958984621314   10.58393391402300   -9.32532465398281
H           1.78039705005539   11.75328091592074  -11.49717710215320
H           2.90297427868061   11.85678252883179  -10.13581558500096
H           2.51903061479084   14.03401608752035  -11.39497125846376
H           2.32040165697948   14.11392043830736   -9.64602312182756
H          -0.06192398767209   13.66866233537302  -11.48458178453622
H           0.54549344158431   15.28284974079243  -11.11864923010150
H          -2.16360569465785   17.17637031166326   -9.30902117170901
H          -1.52449597810802   15.57008121030215  -11.84154775128246
H          -4.12482427591643   16.20504662062053  -14.95167882085413
H          -2.87410835577274   15.02457595054220  -15.38935670953811
H          -3.50281298412509   16.75938822409046  -17.17811164465749
H          -1.77625972224018   16.54167947623182  -16.87005481774371
H          -2.55429708428040   18.95617002542321  -17.05538317436918
H          -1.59807013077279   18.56406721942686  -15.62830072305169
H          -4.63767356721739   18.51558597126659  -15.52841308301906
H          -3.72632885782472   20.00730728611933  -15.32113645554871
H          -4.81082548575635   20.97992793274983  -13.77149973007313
H          -4.43854695534687   21.18377933678594  -10.74325386719074
H          -5.30719394968675   22.37048661789279  -11.84101708292521
