101
 SCF done       -164.833323226473          0.000942854723
C          -2.10579763409596    3.51950646768881   -5.97830016908820
S          -1.08645624240712    4.00530010192016   -4.69711072919771
C          -2.46225687490072    4.50789296303230   -3.74785104323283
C          -3.65057361804874    4.28438152241557   -4.41835746203688
C          -3.43147302440080    3.71207895377835   -5.70007529447114
O          -4.39581253134016    3.29460618824045   -6.57682011853711
C          -5.22002370444041    4.29885834973259   -7.14029800568452
C          -5.85145890857194    5.23800755337314   -6.10632639483341
C          -6.15145521950460    4.49026628202002   -4.80549377718630
C          -4.98877337922893    4.60893002414944   -3.82061492860156
C          -2.29524307283571    5.06011048399117   -2.44805610830411
C          -1.10121566747123    5.26343258296695   -1.84774282995474
C          -0.95869625141317    5.82072161845703   -0.55011439022620
O          -2.04545808732852    6.17504365833846    0.19336239202726
C           0.17017754588565    6.11573491732629    0.18036898483465
C           1.62906627697472    6.08883694871511    0.13432368153821
O           2.39561809091756    5.68924014657713   -0.70616880173408
N           1.99803114767074    6.66663408777978    1.34479241054736
C           0.94286156357756    7.08544588577431    2.16083613911959
O           1.10108402859049    7.67504391876872    3.19992203376969
C          -0.25091746625992    6.68302077352627    1.41766890242800
C          -1.63370510697937    6.68690740688735    1.38727671329862
C          -2.63896003752556    7.10532510962681    2.29384382349217
S          -4.26481976945549    7.36790123127859    1.74449983697432
C          -4.76607129365790    7.88195981247628    3.33333640732904
C          -3.73615785543992    7.77887866406616    4.25414501839474
C          -2.52614918968498    7.34725523684720    3.65867551502612
O          -1.35013105793457    7.11998196032116    4.26827979328550
C          -1.05393480742800    7.91880640417786    5.40177044799285
C          -1.63700789268708    7.35559600265598    6.69813821255164
C          -3.08696485965360    6.90455976922695    6.51815800562761
C          -3.93432209890334    7.91463449164664    5.73859288716012
C          -6.11869734430154    8.30438869186351    3.48768693129708
C          -6.57730267687891    9.13092118095139    4.45670692479039
C          -7.93056418971204    9.52746199200050    4.63032770323364
S          -8.31027039036553   10.70620680615644    5.84922793321139
C         -10.01407216484595   10.61300462233900    5.50516933168359
C         -10.26838353775132    9.74317164169681    4.45680302296188
C          -9.09220344407995    9.11454630931990    3.98412930257761
O          -9.01846440428347    8.16262923787747    3.01442931578520
C         -10.15135264299462    7.32660434793012    2.86951091809823
C         -11.22272924422049    7.92106333877636    1.95440946100431
C         -11.49296217270202    9.38780679705955    2.28905265911150
C         -11.61422771317212    9.63641701615311    3.79429177746909
C         -10.88346043729509   11.40894064184812    6.30426401424751
C         -12.20569809217323   11.21695688933436    6.50776005389475
C         -13.00894440975619   12.03823566034678    7.34386804246567
S         -12.40979751578275   13.43032413823889    8.18765294206792
C         -13.96080565725236   13.72096127741352    8.92235879563786
C         -14.90775828978797   12.81129155857410    8.49878064672175
C         -14.35712980408852   11.85065390344608    7.61471507069402
O         -15.00221037740607   10.79595164448044    7.04010845347877
C         -16.06713883209077   10.24004727525475    7.78753141472168
C         -17.39949623138020   10.95966938633650    7.56990490884967
C         -17.24231064939000   12.47904530329087    7.63532863652023
C         -16.37290295824207   12.93511796320299    8.80944329395093
C         -14.05966693648663   14.83733998175110    9.82595686867066
C         -14.93517544709377   14.98562320820241   10.81796265185203
H          -1.69338674551871    3.08918837852940   -6.86886968820493
H          -5.99517177611214    3.73363419342871   -7.66427856363995
H          -4.64864176712903    4.87791590133480   -7.88069098272681
H          -6.76319289190239    5.65178090765102   -6.53787132474651
H          -5.17625070498938    6.07006018092617   -5.89669078528230
H          -6.34199457010504    3.43984818772365   -5.03140340384575
H          -7.04560075944813    4.89885822404323   -4.33207528421600
H          -5.16540757856996    3.94816316732524   -2.96629043304520
H          -4.95744007817629    5.63309059362859   -3.43610334353326
H          -3.19731697115916    5.32954791261366   -1.91512724334792
H          -0.17511665876661    5.00529545572396   -2.34125780182754
H           2.96291418932788    6.81457152266980    1.60331819605276
H          -1.41525168013214    8.93851409185154    5.22847027492536
H           0.03661164489650    7.94316926850503    5.44206804232827
H          -1.57593513323303    8.13340373507431    7.46151091370913
H          -1.04022273981617    6.50550895001949    7.03169559830444
H          -3.53096051606564    6.74634655464595    7.50300242365401
H          -3.10707416106313    5.94826811021987    5.99103726008918
H          -3.70459718191465    8.92875231812459    6.07952845693999
H          -4.98947039315075    7.72706773928433    5.94977170018405
H          -6.80504210708119    7.96388403799685    2.72707269463137
H          -5.88788449022189    9.57673425716151    5.15877183650383
H         -10.57123278940034    7.10655049777908    3.85822774232036
H          -9.76765014919660    6.39453631667547    2.44416717896470
H         -12.13356808276311    7.33096943321042    2.07276793280271
H         -10.90118043174881    7.84533642942802    0.91454808929191
H         -12.41548711603759    9.69801246721758    1.79471650511634
H         -10.68369935566488   10.00637015223398    1.89506708280113
H         -12.22166925095502    8.84861144230385    4.25108248506510
H         -12.13402438815291   10.58372515600313    3.95436283822468
H         -10.40013472474124   12.21802569496461    6.83927852026160
H         -12.73407666170795   10.38555563256592    6.06764802038279
H         -15.80353146885737   10.23812748107001    8.85195699893488
H         -16.14355467698999    9.20160662585785    7.45170218090816
H         -18.09526393069490   10.61766916198590    8.33850305869608
H         -17.80900638893223   10.68674672897525    6.59608120209229
H         -18.23264956468305   12.93034384216889    7.71984034177735
H         -16.79442734328521   12.83937118815295    6.70676311835564
H         -16.63559600279362   12.36608575990256    9.70668223989446
H         -16.57818792474891   13.98763108046026    9.01697991394225
H         -13.29912048800552   15.59387800195885    9.67681196999921
H         -15.67095656074623   14.24164154535196   11.06393630771608
H         -14.91584706812391   15.86221134160775   11.44190550228484
