68
 SCF done       -137.562438350941          0.000221943788
C          -6.24196504883077    6.23262813815047    1.90053244019313
C          -5.69845537388528    7.22435859265515    1.16322707051642
C          -4.26836182473480    7.02677019051894    0.97371454901314
C          -3.92347887128219    5.88607374344278    1.61006385699640
C          -5.17711434518123    5.29994143972733    2.24868712338041
O          -5.17432432644998    4.27169152923689    2.88887134270957
N          -2.78224886425940    5.18014588603222    1.80459713380896
C          -1.52726533838456    5.43053647551242    1.39045050951248
S          -1.14649939274632    6.83255037500184    0.44885571098053
C           0.52167732326624    6.34281460094569    0.42491505615394
N           1.41674897731924    7.16609159446305   -0.26767321993742
O           2.58674631466693    6.83640223031876   -0.29872152279182
O           0.94273844083700    8.16101575832166   -0.79147257907686
C           0.76445487271705    5.18026040682678    1.09912806853239
C          -0.40074961068781    4.62169704379205    1.66952788268213
C          -0.46099769720848    3.41384481849886    2.41699701348771
C           0.61394568959110    2.64445805533779    2.76143753199301
C           0.49800846030498    1.45541345725387    3.49056803052909
C           1.56103308655948    0.66873738035838    3.87713352147280
C           1.49863435755918   -0.54134521460033    4.60235359029576
C           2.71688861495792   -1.10599663604475    4.85163967384136
C           3.80120793818523   -0.36763613573372    4.33916467352632
S           3.23402545397457    1.06425705339649    3.52272912311974
C           5.15532451382278   -0.67249276645694    4.43857194457163
C           5.73592497364916   -1.79701860502324    5.05591735109990
C           7.10169504809090   -1.82438794934505    4.99462864809289
C           7.67080617468882   -0.72122600798622    4.33151271118111
S           6.39428696769324    0.35635307990562    3.77894984753785
C           8.97221954039476   -0.33906753114111    4.05686015813361
C          10.22443147329453   -0.91139195070035    4.31082931842465
C          11.37056014834359   -0.15255350418732    3.88783431459101
C          12.71879866760946   -0.61135252888005    4.06776929642082
N          13.72197275376592    0.02977286281458    3.45277918181847
C          13.48850107605616    1.16136200396991    2.84056458456532
C          12.17585153702293    1.73219284989694    2.85513261190136
N          11.16138867783416    1.03986758073605    3.32197382842712
C          11.94594806285091    3.02568058139354    2.32935183134810
N          11.79258225064462    4.07494681690388    1.89464978616010
C          14.53876783596974    1.80088330781238    2.13585765308112
N          15.35877521248555    2.34699360193058    1.55179413762994
C          13.01888844316870   -1.78174968613289    4.80732071433507
C          11.90341043840232   -2.56491340029063    5.17906428646126
C          10.53704884482298   -2.15167358342089    4.93748748335220
N           9.67766394811679   -3.06024303716690    5.38659264485988
S          10.48019044534158   -4.29219301987020    6.04522907140234
N          11.96735753812007   -3.74222088505246    5.79928777366384
C          14.34808330691533   -2.13122951797069    5.16684573481061
C          14.86785286879700   -3.35371432384637    5.45378660563306
C          16.26746902633261   -3.21975044169640    5.81256249134699
C          16.63322793020646   -1.92629307154185    5.78947510870614
C          15.44923046274535   -1.11397241167660    5.43086555979370
O          15.33683746331807    0.08385143928710    5.47480198146917
H          -7.26516748627526    6.11524948818350    2.19755359621620
H          -6.22217968674992    8.06852239271463    0.75169531912827
H          -3.64655868399944    7.70057412831902    0.41739526859487
H          -2.93995504090866    4.34090158776032    2.36312773656915
H           1.74862386749149    4.75496929336743    1.16531479887714
H          -1.43695598444541    3.07485768852702    2.74114536141805
H           1.61036237205835    2.94902279515899    2.47435043674408
H          -0.49046451875975    1.11998198074331    3.77720868028347
H           0.55922759935065   -0.95938390159649    4.91794481720073
H           2.85623066494375   -2.02572229158274    5.39011853459049
H           5.14341338323064   -2.55970631963792    5.52831639409591
H           7.71845060102284   -2.60246775055520    5.40325891273687
H           9.05707659106307    0.61069388638030    3.53912771462803
H          14.34742229191699   -4.29092846616909    5.39202774179773
H          16.89462946691316   -4.06105230146138    6.05042605868081
H          17.58866009634101   -1.49627289593684    6.01987538669163
