64
 SCF done       -127.363536642455          0.000447239856
C          -1.67445539448399   -2.29467308444579   -0.12276556445889
N          -0.92205501597312   -3.37422724949116   -0.08582805525664
C           0.37204434289025   -3.16090672519660   -0.34466073170736
N           0.91137786334093   -1.96273565621894   -0.57399508635892
C           0.05378726980192   -0.96353060461048   -0.57247808312469
N          -1.25003793499421   -1.06667339544048   -0.37751456495518
N           1.16284453390547   -4.26557723557051   -0.36483701255042
C           2.51054239013295   -4.27380826848962   -0.64345625901250
S           3.56425425805263   -5.26330129196400    0.31507110741744
C           4.92815970861552   -4.60562875221562   -0.52816191929165
N           6.20474115455360   -5.08094884633917   -0.19072369728710
O           7.15586685168195   -4.60847869898520   -0.78182110702600
O           6.26146021458307   -5.93609708206086    0.67406524005376
C           4.58309462759146   -3.67923583164952   -1.47363861208708
C           3.18792345022949   -3.49729101707361   -1.57893807586425
C           2.57533736145887   -2.64928044112580   -2.57221824538462
C           1.42204376727399   -2.94815129787730   -3.21426892705666
C           0.73411150482989   -2.13020948051318   -4.14483352117711
C           0.86505229403544   -0.78337424835721   -4.34273714118242
C           0.09068573302097   -0.01205826918831   -5.25502743290235
C           0.32729723719182    1.32373894760505   -5.21097146484794
C           1.31085792549338    1.69966918090680   -4.26342110248620
S           1.93477832291994    0.28153664036381   -3.44539665588147
C           1.75765724997495    2.96708326004382   -3.96368952317943
C           1.36950263865130    4.18952763114874   -4.56401180071410
C           1.96120690876550    5.28918265479862   -4.03179051710449
C           2.86978496649143    5.00449158556790   -2.97247228773115
S           2.94470859268025    3.26238034161960   -2.70949427787602
C           3.65755634608744    5.82723102322620   -2.22686323745957
N           3.60176561756550    7.20124579102716   -2.18072313858674
C           2.51253646732555    8.00039771277059   -2.24842507012214
S           0.89848949640844    7.37621186106859   -2.12684190652397
C           0.28372926676395    9.00643225964621   -2.14380458590457
N          -1.10145143554302    9.15741841065533   -2.09827835910343
O          -1.55655020843228   10.28718089320156   -2.11947917098156
O          -1.75921323852604    8.12843611881238   -2.04441077738089
C           1.26088410046121    9.95933242170331   -2.22674357446190
C           2.55483016044252    9.40884864499548   -2.29036981614520
C           3.77244771806182   10.15449972844858   -2.40010849673841
C           3.88589972099489   11.49529768884695   -2.34446336773670
C           5.16420499156955   12.14734239861264   -2.46490414241442
N           6.26855150084808   11.40215213251481   -2.62615546220221
C           7.39268391060119   12.07656298070713   -2.72616325557268
N           7.51409377694987   13.39452192229026   -2.67779013572202
C           6.36917999215350   14.04120779529982   -2.51451502652904
N           5.18314287479566   13.48407181483036   -2.40446034279681
H          -2.73077680824882   -2.42587838683838    0.07332292009385
H           0.45797551662480    0.02503677711675   -0.74720511997052
H           0.73722123756443   -5.10182703785584    0.01419253272225
H           5.30744984599945   -3.17857744527792   -2.09041045511611
H           3.14156433345908   -1.77135651130506   -2.84312300192045
H           0.96510242529650   -3.91275138427974   -3.02710858343275
H          -0.03682115164664   -2.61536372242595   -4.73025819222525
H          -0.62532287810164   -0.48125895288686   -5.90651176250057
H          -0.18277517397572    2.04945256279087   -5.81808336233204
H           0.67020676700844    4.22040192612044   -5.37981319019019
H           1.81941500208232    6.28481009635534   -4.40953664353223
H           4.42388053324008    5.38903682482386   -1.60294975029707
H           4.46479065822984    7.67025196423983   -1.93227339722281
H           1.03769817542017   11.00949683683742   -2.25386595786232
H           4.69035417400529    9.60065438442552   -2.55080477536784
H           3.04421108276663   12.15330196186733   -2.20224831800316
H           8.30233383268327   11.50249330434254   -2.85781508645529
H           6.41446854635980   15.12254243803871   -2.46819267094105
