156
 SCF done       -245.628579678782          0.000435545143
N          -3.11283383253652   -2.47165733637538    6.52302295971362
C          -3.08607802663362   -1.26081576217367    5.70670252466892
N          -1.99468569996529   -0.43115454658778    6.23244676692240
C          -1.42360440988351   -1.15914674802076    7.34389829982478
N          -0.89446876442319   -0.31358443433155    8.41082128128809
C          -1.24653247896973   -0.90000349969084    9.68089559809940
C          -1.17299702702163   -2.44801646148125    9.59438112118538
N          -2.17746703743022   -3.02093022073291    8.72389220571073
C          -2.62288772918688   -2.00724428853868    7.79742591868446
N          -1.20765756886356   -2.84446348392090   10.98587880698112
C          -0.39545539321002   -1.84087180978129   11.65375193413593
N          -0.38331853062691   -0.63240035293350   10.81285648929634
C           0.76097948155755    0.11471357456025   10.70502131677044
C           1.59629285589014    0.33652894780027   11.72817395089338
C           2.84526199735393    1.08086832037501   11.61760810048067
C           3.72280410608954    0.83547634093772   10.55532743857636
C           4.96972811319420    1.42388518848513   10.47246813686547
C           5.42194864296370    2.26979392631943   11.47811065152463
C           4.56727382461905    2.54648939616928   12.52129888404678
C           3.28218719289671    1.99794302642453   12.57233054545942
N           2.59247343100262    2.55754731592120   13.64962693621056
C           1.20214104933196    2.37182348475677   13.96907567498578
C           3.36786416531690    3.44980677773585   14.33259471508941
O           2.98974729950502    4.12912592237504   15.26125917250810
C           4.77552567081120    3.37492561022874   13.75166377487876
C           5.66355911102326    2.61250607166618   14.77566163568764
C           6.99756126862030    2.28806871403108   14.10664990170691
O           7.86661387484103    3.06213600186145   13.77998936097099
N           7.03244045921862    0.93737291065823   13.89163917586287
C           8.10174497833099    0.27415981017157   13.19842411325212
C           5.91648943635355    0.30401294884774   14.42222544290547
C           5.58577274722298   -1.03258877318111   14.39226090413151
C           4.38635848608912   -1.43520325511583   14.99954082479217
C           3.59089038644847   -0.47958472718674   15.64467377449679
C           3.94297754130223    0.85847241107971   15.68469657453870
C           5.09691582454010    1.25428574489193   15.04365966442465
C           3.92141185101903   -2.80008974008457   14.97622766719982
C           4.66890451613131   -3.90386443298473   14.74268019354878
C           4.19114847250876   -5.23916262324315   14.70908007282937
C           2.90353600658219   -5.68766692171186   14.60004331888679
C           2.52041834193235   -7.05900964872452   14.56837814136298
C           1.19747017231060   -7.27743749789159   14.35997737416456
C           0.43706126875492   -6.09210591872425   14.20294524783570
S           1.47192710455563   -4.68748865153545   14.38034280964689
C          -0.89811840943885   -5.97061259548709   13.90356161813818
C          -1.84276130084859   -7.00548751650745   13.67849098437486
C          -3.05929083588519   -6.56516175238793   13.27818950859658
C          -3.16062222491897   -5.14564303777707   13.13942383757331
S          -1.64941402705893   -4.40511949071695   13.66662742574295
C          -4.20120806473014   -4.48899087782505   12.56690340159966
C          -4.29476763871703   -3.06412799548136   12.33252854464075
C          -3.80124558962211   -2.15258723475737   13.28145120755362
C          -3.88057143446797   -0.78665387339380   13.11209149633056
C          -4.47416756048822   -0.25032784962891   11.97540186997333
C          -4.95655183189788   -1.11912719229065   11.02315863927454
C          -4.86935745150562   -2.50702628177568   11.18253630213739
N          -5.32171967103219   -3.12266877398723   10.01514727372274
C          -5.43055639735713   -4.53159857494039    9.74055943050666
C          -5.70627987277421   -2.20042326601693    9.08033161088346
O          -6.06363057244133   -2.47303506790748    7.95405617796215
C          -5.62820244727923   -0.82371703168216    9.72233593951957
C          -7.07763955573211   -0.31720040075962    9.91595880381180
C          -7.94598956264258   -1.45513574179781   10.46073211732195
O          -7.78226532152522   -2.07109655459863   11.49299793942030
N          -8.94116685521542   -1.68604197973197    9.56308206745076
C          -9.91624362323920   -2.73012933132803    9.71357619591691
C          -8.85248680622155   -0.83422010035102    8.46461516916849
C          -9.67449396563492   -0.76980779334646    7.36355844316568
C          -9.38715310164600    0.17397509352448    6.36732243925953
C          -8.26566371155951    0.99726645407024    6.52244592868711
C          -7.45043326328407    0.92897489672756    7.63964137445332
C          -7.75353328092965    0.01447104774233    8.62424822982193
C         -10.20659885364717    0.33199694194381    5.18464841149161
C         -11.44785819458272   -0.15982750458727    5.03809798110663
N         -12.22584797174025   -0.04692946127639    3.92269759860697
C         -11.95826194457787    0.96147818019535    2.88545948378066
N         -13.22101967920575    1.28380255671813    2.24802706516144
C         -14.18156588078583    1.03507768556921    3.30665384378755
N         -15.55208964433856    0.87171750867992    2.87979850691173
C         -16.24734680467060    0.04570798185707    3.85479949094970
C         -15.58894392655307    0.09100997837675    5.25023842557213
N         -14.25456010614490   -0.47822404956598    5.26014530764305
C         -13.65964384737729   -0.27092036979854    3.95368941599086
N         -16.58812371888833   -0.61257923371101    6.01546951882579
C         -17.85805163399941   -0.06556381485162    5.54070628391375
N         -17.59063098719193    0.42997016400977    4.19692018209693
C         -18.58350726017131    0.45086368053262    3.23808738955070
C         -19.89054275261314    0.45716714706506    3.46861876942183
H          -4.05238484409509   -2.85172062138348    6.58421876928512
H          -4.02226946735762   -0.68071333736396    5.79244090401971
H          -2.94038948816100   -1.53391346923869    4.65662452300787
H          -1.30197195076450   -0.22254789913078    5.52504003892842
H          -0.62082916186392   -1.84873399197271    7.03478093960355
H          -1.26600979013670    0.62678029470594    8.31654596636940
H          -2.27367233778194   -0.62398391079783   10.01034946834450
H          -0.17844015544110   -2.71426468472049    9.20528090262782
H          -2.94892626157059   -3.40851115647429    9.25320077419701
H          -3.36510783254922   -1.31591218589009    8.26282079992937
H          -2.16552028060691   -2.79417374357236   11.32652405332028
H           0.63139038025839   -2.21516396918265   11.76119366577607
H          -0.79939721524484   -1.62770549117943   12.64769144286542
H           0.90201433825406    0.58437971819145    9.74183502064617
H           1.38098107058189   -0.08879702898201   12.69679171561238
H           3.40740468593308    0.14046519744217    9.79129217339070
H           5.60902105851884    1.20571135051287    9.62985229622044
H           6.40766077845113    2.70681930608290   11.43889429046529
H           1.04567022999042    1.43347142719222   14.50528446741994
H           0.60131315401738    2.37230537133037   13.06037285864537
H           0.90725387176290    3.20044857746204   14.61450408345648
H           5.20861286507335    4.35936936632113   13.56900630349042
H           5.78806739583439    3.23418170351046   15.66442851238658
H           8.83865798503317    1.03181349330858   12.93417292887726
H           7.72750765245551   -0.20365536357589   12.29028996653057
H           8.56797763464773   -0.47794362361459   13.83829260072314
H           6.21173810085524   -1.74912322012875   13.88582516321501
H           2.68146399204905   -0.80473512327196   16.12842549256886
H           3.32311658178503    1.57540150677984   16.20082572831022
H           2.87719811450700   -2.92427737103884   15.22645988372746
H           5.73719172539768   -3.79566474784791   14.60771856016968
H           4.94660416637979   -6.01505687453617   14.74226068685035
H           3.25141982089399   -7.83887406088751   14.69357063041018
H           0.74679519523167   -8.25171396199950   14.29589052773038
H          -1.58363921764316   -8.04209841438799   13.80102000278752
H          -3.89181468329213   -7.20423457278785   13.04075738512032
H          -5.03340195163312   -5.09540367410591   12.24334957966973
H          -3.37500362220913   -2.54769650047366   14.19038306196572
H          -3.48924643347247   -0.13001715157036   13.87360139306355
H          -4.54823450510725    0.81789480227965   11.83849529684456
H          -6.25607657112503   -4.97037097394305   10.30516120508588
H          -4.50082790572293   -5.05159187876160    9.97606191099828
H          -5.64217399393270   -4.63000796419528    8.67450000841527
H          -5.09528121738165   -0.10397854903413    9.09653758301105
H          -7.06340789555250    0.51968354539443   10.62062939382925
H          -9.72305794120873   -3.22409988419380   10.66541704377381
H          -9.82808984799670   -3.45366234948921    8.90012704428802
H         -10.92544740809229   -2.31330789872147    9.71821314432303
H         -10.50892803813434   -1.44331793619870    7.25862809248668
H          -8.03625268292054    1.71279626803810    5.74646620433860
H          -6.59632567777459    1.58413557427712    7.73243630687244
H          -9.76832153182295    0.92097440688684    4.39235156867609
H         -11.92703304561791   -0.72439512299042    5.82287275724865
H         -11.23062282024065    0.58899399250581    2.16024498664111
H         -11.56069374842234    1.87236854805858    3.35498577440019
H         -13.41651352208407    0.65477783754479    1.47413566728876
H         -14.04047189888524    1.85068431789226    4.03837149285068
H         -16.01061549127831    1.76930759581675    2.76599446872190
H         -16.21811832247144   -0.99893363626449    3.48609344857037
H         -15.50242394530250    1.15134381820431    5.56075810935411
H         -14.30680518636173   -1.46639128446468    5.48694560898258
H         -13.88151975687240   -1.10501363826380    3.25811224812608
H         -16.47470598099504   -0.49665148413750    7.01585327191927
H         -18.22935733062064    0.76556942631851    6.16306866554625
H         -18.61338278405356   -0.86391896376475    5.53069282427917
H         -18.18952399697925    0.52674845609112    2.23405310083352
H         -20.30761657297635    0.40454717406361    4.45771283264391
H         -20.58544207966191    0.53005875968004    2.65374132310800
