93
 SCF done       -171.969137315408          0.000698258965
C          -5.79380898849145    2.80289007622029   -2.86845572029215
S          -5.07272220344407    4.01946188299032   -1.87360618099165
C          -6.52746777404808    4.14163512578404   -0.93089810557754
C          -7.51147850133136    3.25389547766074   -1.39695883031127
C          -7.06065690461032    2.49625781015291   -2.51196913716660
C          -8.74232523455549    3.21687799889898   -0.71535898457186
C          -8.94403990840252    4.08211097252870    0.37239890864437
S         -10.49215157246020    3.79844250964929    1.11478424819120
C         -10.85073240546527    2.56601924550724   -0.03809390987610
C          -9.86144460526931    2.36614762437370   -0.93462850728399
C          -7.95789011047271    4.99100081202779    0.79664382500947
C          -6.73523535653747    4.99534861059621    0.14779396891030
N          -8.16104277403276    5.82607200708012    1.89820423689149
C          -9.26382946697101    6.59243398811257    2.10780773636083
S         -10.36511267053060    6.94792156027722    0.81443144925915
C         -11.26416887410683    7.98594675672025    1.87643148610136
N         -12.41264181463037    8.59418808265385    1.37191913165833
O         -13.04136478702862    9.32819525047834    2.11460407685363
O         -12.70159267795982    8.34839983093278    0.21125640060788
C         -10.72704111884329    8.06396485211324    3.13329902705570
C          -9.58291446513334    7.26101651111844    3.29583653673210
C          -8.90117438212238    7.16520661909657    4.56359954350870
C          -8.04743418791310    6.19873745732052    4.94625986510764
C          -7.39403795445693    6.07276686019431    6.22615888516134
C          -7.11444471012641    7.01014608402543    7.14392190010446
C          -7.39588079861698    8.47482781113983    7.01286673939491
C          -6.45187681503067    6.61101718178333    8.43539392004390
N          -5.14828321021710    7.23124868483412    8.55776701257704
C          -4.37127707006138    7.16157627663119    9.64871888375825
C          -4.67022276908450    6.46287136156274   10.78459431131565
C          -3.88879837489398    6.40823369438304   11.95183955221584
C          -2.77614958581626    7.12883774538150   12.31756634521244
C          -2.07294482027567    6.96077146082416   13.53426463445967
C          -1.02848845906281    7.81831384914928   13.71411685753383
C          -0.84606693740920    8.72475825084902   12.64936919240183
S          -2.02907869131009    8.43571269224756   11.40244497070231
C           0.09464067742564    9.73756597733639   12.54185514369182
C           1.11384453726076   10.07231138984475   13.45077837481752
C           1.85819813476194   11.15378880824406   13.06799797651783
C           1.46192249872183   11.72128582208856   11.84128292306162
S           0.11413534789494   10.83667410607207   11.17676699721608
C           2.00745720509960   12.84401638785582   11.23710137837460
C           1.58041994789661   13.34673189778395   10.02110224131226
C           2.01237630485475   14.49410968977086    9.37535124915817
C           1.80772192103891   14.62674988305350    7.92320535257228
O           1.13238895449119   13.91498750228552    7.20574343956820
C           2.63510765653164   15.78438385858674    7.51186957186800
C           2.86644669365538   16.27758309730323    6.26223900793642
C           3.73339286756682   17.38454977301809    6.10929643325856
C           4.34459070870554   17.95539843768990    7.26172366102742
C           5.21244581432660   19.05355023320198    7.10351651632554
C           5.46039152519396   19.56284494928853    5.85950908866710
C           4.85512122905157   18.99838496705523    4.72133143674812
C           4.00886026656303   17.93168522051625    4.84182525448227
F           5.11675923696503   19.51705279184534    3.50997605220834
F           6.28762051350029   20.61025544496929    5.71217086470431
C           4.07706078205710   17.42604898608627    8.54680605777503
C           3.23079445263190   16.35890302251645    8.66988030218412
C           2.75001576664185   15.62748227546076    9.84560114787762
C           2.83619389894378   16.09379363493214   11.14066538323593
C           2.11587724598235   15.56681427943472   12.22842682540111
N           1.51950110648401   15.21828949423185   13.14731569953091
C           3.56940090305029   17.23334725648662   11.51742485669357
N           4.16982530137340   18.13954248121671   11.89135193838099
H          -5.21512528868408    2.38776886742997   -3.67007880171277
H          -7.66167854211754    1.76372705319785   -3.01883448221194
H         -11.79562051485876    2.06349772771142    0.02880471253523
H          -9.90877142369937    1.63967835192480   -1.72481370423103
H          -5.95141046969325    5.66427901191929    0.46811725437419
H          -7.32713376279784    6.10905252000549    2.39784651754776
H         -11.16555561356597    8.66252479064831    3.91129661584478
H          -9.19634788565927    7.92602381367215    5.26850794793472
H          -7.86863649308495    5.36386788590004    4.28184027538573
H          -7.07618591343520    5.06015431073710    6.44684596299386
H          -7.27850738225042    8.80675309097025    5.98354035604443
H          -6.72882555461161    9.05176902223406    7.65050816515821
H          -8.41614844826748    8.69538446706576    7.32803309743599
H          -6.35327283088247    5.51996414971349    8.49440480322600
H          -7.07317240533001    6.94154809622326    9.27828752361463
H          -4.78281317361796    7.67851258591207    7.73272208796636
H          -3.44141632835671    7.70461410833440    9.57283005134309
H          -5.57150690675065    5.86789782056904   10.80101737302949
H          -4.22270895338401    5.69801175501351   12.69900835340115
H          -2.36507251473587    6.20895037881433   14.24657364620877
H          -0.39925660681175    7.83116261240111   14.58526845813342
H           1.27677307802201    9.51832748699467   14.35776736653912
H           2.67101541536577   11.56607443066976   13.63842770127844
H           2.82088804873753   13.32076408289052   11.76428226844032
H           0.88461525639220   12.74116625495361    9.44706034205664
H           2.39639576277187   15.83083910380422    5.39925264209880
H           5.68213535362022   19.49964884057046    7.96626074658160
H           3.55292195716064   17.51035121483603    3.95952216418765
H           4.55716162242207   17.87743148136330    9.40013111038903
