79
 SCF done       -144.629404568759          0.000709371212
C           1.92405476061511   -0.17622694791942   -1.50907744068321
S           1.86642523525157    1.38791690404786   -2.24053425056005
C           0.85237047682633    1.97871767033212   -0.95395846255405
C           0.58471736292266    0.96463814577729   -0.01599614191222
C           1.21693726221980   -0.26061823753626   -0.35986478868616
C          -0.23986638073601    1.27645497932469    1.08055771176164
C          -0.73476394629493    2.58467761430892    1.18583854983668
S          -1.74557006351384    2.77586696998697    2.56821509691173
C          -1.49151878636277    1.11804106159442    3.00689144099865
C          -0.68556624647255    0.45188129466627    2.15221956464824
C          -0.42357591657303    3.59376101071335    0.26302999496639
C           0.37160559735496    3.27485927406501   -0.82620265630971
C          -0.91847067542688    4.94980481742677    0.46731509379734
N          -0.56214683105602    5.87680293603648   -0.42417708508947
C          -1.02590068343654    7.09853270976945   -0.22785710874528
C          -1.84828595948217    7.42175365275517    0.83496132567345
C          -2.16713158672228    6.39020555725758    1.73367354065337
N          -1.68168380335403    5.15891234231135    1.53007837537068
C          -3.02471410558047    6.62877091136448    2.86353590055653
C          -3.24739128221853    5.69033407441515    3.81633244317223
C          -4.12444843825803    5.80795912810938    4.91095229256248
C          -4.29088888771976    4.79938161156879    5.82497887871089
C          -5.18805758236836    4.74959176342174    6.92388835240333
C          -5.13463208279113    3.59453221582233    7.64156688683744
C          -4.17778596237799    2.67008592395700    7.16151337655228
S          -3.35846277922874    3.31425078127331    5.75408439643215
C          -3.83674294859591    1.43278656211707    7.66429900839020
C          -4.36105037076989    0.72933281258015    8.77301358719232
C          -3.75182345522240   -0.46200145026909    9.02335010540068
C          -2.69191543429602   -0.76853259004039    8.13255871083136
S          -2.54648779913053    0.51225757490601    6.92104143124139
C          -1.82329858811097   -1.82007273401694    8.15993088307460
N          -0.81144472967226   -1.90621785264575    7.25902205072334
C           0.20914596968898   -2.78716593407863    7.20641591930699
S           0.22358684833023   -4.24122738765398    8.15307238227362
C           1.69989525453197   -4.71609884885078    7.36509810569308
N           2.27643215611801   -5.91723066924649    7.76169143620997
O           3.31179856262483   -6.26394279316408    7.21589683809540
O           1.69594745202012   -6.54192699359172    8.63960883725913
C           2.13658580215375   -3.80673347941758    6.43454276793817
C           1.31073240945638   -2.67630168876372    6.34111453521823
C           1.59053205658383   -1.55520140590952    5.47434669471758
C           1.21922002091370   -0.27927960140124    5.69778600900801
C           1.45515868681934    0.82994110002304    4.82681767853554
S           0.71914955163880    2.36319576649480    5.25749964071601
C           1.35725491883764    3.11496473120970    3.83272389837335
C           2.12401823556256    2.20653966074916    3.07956239311089
C           2.15674594385588    0.91659104961597    3.65602223551142
C           2.73704917253129    2.67846366155317    1.90112941008371
C           2.53417146170178    4.02000230651135    1.54156203522327
S           3.37694790665683    4.40943038683690    0.07380476547344
C           3.98747785468309    2.79685750351504   -0.03241328944610
C           3.57541522208934    1.99799140710147    0.97726942438764
C           1.75013339665718    4.89525032002989    2.29396265908719
C           1.15813532190676    4.44032396284298    3.44852396655760
H           2.48859314902078   -0.94900182695678   -1.99358086060611
H           1.13637698135158   -1.15749020502225    0.22764804265935
H          -1.96294830077926    0.74415981001215    3.89521761802524
H          -0.41086043817444   -0.58230111349855    2.26059971077002
H           0.61106484442094    4.03777203321113   -1.54841662638446
H          -0.72023383003600    7.83934100457107   -0.95709360188370
H          -2.22656503371924    8.42143132890462    0.97702712843115
H          -3.49757633654949    7.60030538052968    2.91768183732336
H          -2.71627870559231    4.75455314521898    3.71737475324831
H          -4.71119825908385    6.70934680399064    5.02877695201804
H          -5.84965423446591    5.56992867576715    7.14063223756314
H          -5.74640348219175    3.38393724342814    8.50078822137593
H          -5.17143327227135    1.12788885850638    9.35658071249867
H          -4.01378119925681   -1.12470796598536    9.82851477084757
H          -1.88606010375792   -2.59033059996681    8.91299463690853
H          -0.79771021556519   -1.18615509733757    6.54111613188583
H           3.03907722420247   -3.95240157545838    5.86899881557575
H           2.18311387132189   -1.79018462902280    4.60155685704990
H           0.72091605299643   -0.00574896057060    6.61834456700270
H           2.68867679464989    0.09110422749379    3.21967455877030
H           4.62251363939114    2.54153214267377   -0.85776862284914
H           3.85335190774795    0.96382036957532    1.07151207164347
H           1.61701521579376    5.91407581050959    1.96607121825787
H           0.54122417356263    5.08917159646056    4.04943946029257
