87
 SCF done       -157.701690833325          0.000482405809
C           2.56177810291506    1.75525985240673   -4.63239494786995
O           2.44260320700628    0.69531544836242   -5.44214419755474
C           3.68549426830646    0.32338633448776   -5.79745636801452
C           4.61068643955424    1.13228398146072   -5.22443645951713
C           3.88387601135719    2.08853486008897   -4.44896156475813
C           4.45904875945766    3.14444980870091   -3.66521759614627
C           3.76555050419954    4.03690853156871   -2.92866111478298
C           4.38773102134098    5.04828024196275   -2.14310917417673
C           3.69999589870089    5.92868710325754   -1.37796182896337
C           4.26955957497738    6.96274605796372   -0.58027162361830
C           3.64404073754873    8.15542663491578   -0.32117571183079
C           4.58042570800687    9.04343077789134    0.29081614444511
O           4.39966120994160   10.32809171178081    0.65305939275596
C           3.08705020510361   10.84179094540303    0.58557802237003
C           5.80036105457699    8.40211944787940    0.42522587012206
C           5.63403885392634    7.04116790175102   -0.01615448374971
C           6.45092633129769    5.98344423414163    0.29374979346994
C           6.12569724071188    4.58106702495405    0.26342517997330
C           7.21502518828530    3.88603578315583    0.68525616829429
O           7.40841602209746    2.56769954994664    0.84019787109620
C           6.31918642037098    1.72981813748797    0.52734276620402
C           8.29211819812214    4.82868336745382    0.99183431594411
C           7.82779231118604    6.07164626088202    0.78870131974074
C           6.92972896225547    9.05095684938670    1.05270415192977
S           8.35802271251299    9.55775430279720    0.16566571547405
C           9.05514615507738   10.41361726522710    1.51556927596417
C           8.22439959138594   10.27684690070166    2.61509107375208
C           7.02688064561861    9.54660216117830    2.32209599368117
O           6.22582980105708    9.48549946802158    3.41206045233544
C           6.89277499765157   10.17158071655346    4.38107916077356
N           6.28208346693220   10.28711540806167    5.64705324392687
O           6.90643392929178   10.89944868368861    6.49737521269592
O           5.18976333982323    9.78197191920800    5.80634618125406
C           8.09910850065408   10.67554848452185    3.96852802076972
C          10.32060964126805   11.06951712342007    1.42909839183066
C          11.32644890879037   10.99868066406225    2.34698989522062
C          12.49620608526911   11.64247407485048    1.80613892870784
O          13.58361342067041   11.72482879021623    2.58268188282192
C          14.74358951412928   12.37024378292439    2.10953852321435
C          12.21989336698580   12.08642650153857    0.52657798775448
C          10.82716841523242   11.80660432785441    0.26373786536174
C          10.06818726722679   12.24456283802064   -0.79254458687108
C           8.64050280125528   12.39881573686530   -0.81736800059751
C           8.28724899698028   12.85654718221408   -2.04921257568194
O           7.08688340056920   13.16688565964049   -2.55133682211109
C           5.97798299689354   12.97879029345829   -1.69917098959431
C           9.49203873897503   12.97403759743320   -2.87449470829401
C          10.55119035320204   12.64866605695862   -2.11557033849208
C          13.05645381457930   12.87579760534681   -0.35921735632783
S          12.72354057762471   14.56942717476821   -0.58746550008060
C          14.04457627392103   14.71765668786898   -1.71399316173145
C          14.39741841013482   15.97211888140849   -2.38755358108124
O          15.33476622238675   16.05596103417301   -3.13576316812392
O          13.61810443273231   17.03886900486977   -2.12869230680519
C          14.68825540585013   13.51875144028165   -1.87687107184076
C          14.12744050122721   12.48266155348737   -1.11506192837086
H           1.65553345945099    2.18346548405926   -4.25346584303119
H           3.77637615845717   -0.52009425006886   -6.45260607367939
H           5.67469279948421    1.07439159561795   -5.32850789280616
H           5.54007956880217    3.20176563802113   -3.68141673154266
H           2.68542704325128    3.98507535327353   -2.90278958726370
H           5.46746768772962    5.09999426496081   -2.17343942058174
H           2.61703165752099    5.92316928545953   -1.42871404437805
H           2.63952727578772    8.40712670919427   -0.60632254278730
H           3.13848022530677   11.84910748560102    0.99502560445876
H           2.39585755606578   10.24124576358538    1.18260684627759
H           2.73231012286843   10.88792147587999   -0.44869917746005
H           5.16127016870469    4.18628647709691    0.01901711701361
H           6.66544132564102    0.70906984796292    0.67784836376954
H           6.00471048334226    1.86553072218399   -0.51231408518254
H           5.46824911729143    1.93091700786211    1.18470870218817
H           9.26367709431891    4.52668622371428    1.33247424103962
H           8.37397190766019    6.98406603722410    0.91188205166498
H           8.77901252254147   11.24715492748799    4.56561530755432
H          11.30655240210583   10.51084023810533    3.30175430150361
H          15.44335578578464   12.36599207616889    2.94389552773756
H          14.53501847975140   13.40178242069988    1.81554666145175
H          15.18074594435586   11.83523276131253    1.26289756958152
H           8.00187160126290   12.27865580195211    0.03410027623512
H           5.09579082196255   13.21579425837630   -2.29093377847527
H           6.03130627531285   13.64737696973793   -0.83497318780534
H           5.92388588586011   11.94470111023584   -1.34594426565661
H           9.47806538871836   13.27412395267267   -3.90434525816065
H          11.57215776407190   12.57903714376952   -2.43616335730455
H          12.89482599481409   16.83728978766285   -1.51961402565836
H          15.52927427728804   13.40737890124284   -2.53650312643975
H          14.48080828735842   11.46663435944212   -1.13446780709139
