85
 SCF done       -155.767475742945          0.000762265646
C           6.87088672984513   25.16764855873230  -13.34531725087574
O           6.27461400353749   25.48336980592851  -14.50028615334059
C           6.57488750284203   24.50874393090100  -15.37843227143676
C           7.36024226573479   23.56413798804152  -14.80449346273747
C           7.56716732050618   23.98525158856575  -13.45322132631352
C           8.31468730306719   23.35046907996906  -12.40722674019601
C           8.98043539458649   22.18338786455150  -12.54227555367397
C           9.71697198589484   21.50463687485945  -11.52552085099215
C           9.89831391475260   21.93020799049263  -10.24986190112104
C          10.60102227572772   21.21507181011050   -9.24883992717177
S          10.73544054247302   21.91927158005852   -7.64212723718767
C          11.59066739307267   20.54865128926839   -7.07724283265429
C          11.76624988692965   19.59762881209250   -8.08999759116645
C          11.21612706950915   19.96884341906183   -9.30789182217441
C          12.48355390503867   18.45919249953121   -7.49435076141448
O          12.86123820329027   17.43582110536862   -8.01509904940225
C          12.67805425915983   18.84625924546172   -6.04587470877568
C          12.14355246804413   20.10333780664635   -5.85196008519983
C          13.29420339070790   17.94775576381006   -5.15962947244613
C          13.57968668056330   18.18557338158195   -3.84363640711122
C          14.17037643373338   17.24315166815643   -2.98552091939043
S          14.66516542709002   17.72148998099224   -1.36611599080714
C          15.26345898025664   16.14901147884961   -1.04769098053197
C          15.06046171494122   15.29148946393219   -2.14229198544574
C          14.46255327776535   15.89537272160003   -3.22715619179246
C          15.64501082135114   13.98566059741494   -1.78313080426395
O          15.71270722210186   12.97928004705272   -2.44720072054166
C          16.21643539447559   14.19581222167026   -0.40396325793889
C          15.95955555475501   15.49698306773428   -0.01026604188871
C          17.02835261865536   13.19183638758131    0.14007410468612
C          17.84633948373374   13.28285257584896    1.22734258926520
C          18.84368917730411   12.32701589127883    1.56911593777078
C          19.51958328409203   11.48936795833174    0.69378810586488
O          20.29522390448168   10.43721612486643    1.15061963741219
C          20.48346853582982   10.36878729913228    2.49577158617820
C          19.91214084319761   11.32830439999960    3.37992727935538
C          20.24346162083185   11.11426224589883    4.67729013980107
S          21.25881759969896    9.73087688340433    4.83948538927119
C          21.23519978077907    9.44178065368669    3.14027494654705
O          19.09085645380632   12.31619603885594    2.92599929126814
C          19.55573863713885   11.56280623644737   -0.72845801268748
C          19.31411352384822   12.66081667015664   -1.49999480195425
C          19.20363358077821   12.60145608049535   -2.89976093324052
C          18.73836915185041   13.63827907047046   -3.66998284167852
C          18.47394680587313   13.60078956256336   -5.09268460622624
C          18.82070818419969   12.60825713813826   -5.97285329665147
C          19.53040094327465   11.43355634124280   -5.64820238464223
N          20.11592610577660   10.46020139574147   -5.47655849307175
C          18.54388164753820   12.64089387462010   -7.35556843464189
N          18.36132845253701   12.59911884575355   -8.48866328503643
C          17.79700968339996   14.84697745824922   -5.45190073089339
C          17.72565931533300   15.66484437390880   -4.31131618288295
C          18.29497118393740   14.95557523652904   -3.15488769560969
O          18.35440351348081   15.37951201123385   -2.01310568241041
C          17.17048375167627   16.92928513510679   -4.37294905979634
C          16.66761644662660   17.37211798033105   -5.58540861987731
C          16.70439208894445   16.56605154836497   -6.72233476683837
C          17.27571660074630   15.29482810310334   -6.65277322331882
C          16.13224880593935   17.05857618534532   -8.01078573495822
H           6.74032865156906   25.83841405725950  -12.51898166568655
H           6.17377957739485   24.60086557518134  -16.36827171934543
H           7.74399041465454   22.68270406236967  -15.27385569647188
H           8.31113290809845   23.87407924089840  -11.46162382903821
H           8.95770724402791   21.69000386911755  -13.50430968271862
H          10.15670247067045   20.56139194189031  -11.81930786491546
H           9.47984001561682   22.87638656505831   -9.93605467118878
H          11.24830657005825   19.36634788572453  -10.19642366136604
H          12.12410040205404   20.65735647521001   -4.93176858092704
H          13.55615635048043   16.99222247843389   -5.59391675478788
H          13.36297831374966   19.15749085225884   -3.42226249142460
H          14.23684542217141   15.40067714604217   -4.15349828199975
H          16.25821116835462   15.95102473177344    0.91623468920133
H          17.06554952008909   12.29151767767572   -0.46087749346550
H          17.72270109178429   14.08599342381719    1.94036393683023
H          19.95084375163890   11.68261862818734    5.53499085299636
H          21.77017759949540    8.61705783468531    2.71857988998280
H          19.88420591344699   10.64589516125136   -1.20439843314344
H          19.11673714014055   13.61254681448332   -1.03237818494879
H          19.41217833230343   11.65101250426474   -3.37344391876729
H          17.15029986951402   17.55439156014764   -3.49286118474320
H          16.23442416019516   18.35944442409260   -5.65646559517899
H          17.30365341144913   14.68195898836667   -7.53930204402441
H          16.33448346251800   18.11972513468350   -8.14309619599974
H          15.04883336383075   16.92702169473774   -8.01662543320048
H          16.54094382747452   16.50823992104560   -8.85419390880509
