100
 SCF done       -166.387674943200          0.000550129058
C           9.13073413239594   13.23316529281930  -19.61571346622295
O           9.08555115351580   13.40345380194396  -20.94402313226341
C          10.11302166330002   14.20553948755980  -21.27753668025879
C          10.82338255832784   14.55786509006451  -20.17771275323223
C          10.18705168865576   13.92200124473814  -19.06638594188551
C          10.60367060908487   14.01689393843164  -17.69627632455796
C          10.01816992668554   13.38725145300124  -16.65631584815174
C          10.47115665717651   13.50907413729277  -15.31366228522159
C           9.89592734114127   12.85811682002554  -14.27300436038686
C          10.31452405179628   12.93796963891650  -12.92074761312528
S           9.47418321295205   11.97180944447635  -11.71164954354559
C          10.49921073712024   12.56757093294672  -10.47787658370028
C          11.43850566950878   13.47255742218024  -10.97952919028440
C          11.33758818389865   13.68245402884979  -12.34890101115662
C          12.26958366911174   13.92239798411309   -9.84845232560634
O          13.18607488122682   14.71047596747456   -9.87060624310420
C          11.71508845925576   13.17269610263172   -8.65369962885235
C          10.66491615611038   12.38783000237796   -9.08236131803773
C          12.20503884930541   13.25278266315163   -7.33637108244729
C          13.25597892217919   14.03625010905119   -6.94975131658456
C          13.77896553773866   14.10225489739233   -5.64608876573141
S          15.15231802141517   15.16296775253986   -5.33846983857172
C          15.19389386708354   14.68254337225169   -3.69576848952135
C          14.18665079326445   13.74884457476582   -3.40144669039878
C          13.39466618741988   13.42432130603324   -4.48666939574896
C          14.32203127584552   13.40046765369386   -1.97348786220281
O          13.65561175397393   12.63996133297189   -1.31255013811685
C          15.49966183299927   14.21538357083007   -1.49561752687795
C          15.97778153739627   14.96283945228007   -2.55764628658922
C          15.94415201712050   14.12291777735225   -0.16737782069918
C          17.01188197742388   14.80313222208022    0.35260108169725
C          17.44639340962870   14.66642616964496    1.69016906232024
C          18.53538336692066   15.33320659677432    2.23495753610029
O          18.93190548841729   15.14467349467734    3.54334706451239
C          18.19079789618435   14.27007220926462    4.27448292084351
C          17.06848757263728   13.59155125116942    3.71885490706779
C          16.46105916305240   12.76509687514523    4.60588544390967
S          17.25293123917715   12.80389886832591    6.13737564680091
C          18.41422295242197   13.94582427926949    5.57266996763250
O          16.68390854630380   13.78114714247766    2.43022647251669
C          19.34463443829069   16.26061275355904    1.52451039322826
C          20.42543725379653   16.87677610429205    2.07029618630484
C          21.28683108412654   17.82208310549090    1.42678688734492
C          22.37704023798140   18.30585998925197    2.12511081569257
C          23.25151000754799   19.23604659984055    1.53701226726973
C          24.39244310387609   19.85856343525215    2.02672792465703
C          24.99813332200711   19.64206852946834    3.37461112613801
C          26.45988940321948   19.17900748579714    3.27627415946438
N          26.57214522101927   18.11423161248728    2.29474308299140
C          24.86406067155725   20.89558292451867    4.25588593401726
N          23.46584599496581   21.07897180170852    4.60338782121782
C          24.85827124280832   20.74891292289668    0.99091538397658
C          25.88885387029989   21.61494655620971    0.93610613129882
C          26.13694318073675   22.47347137367190   -0.25551846655367
C          25.21807114424960   22.22366891679602   -1.40790160115757
C          24.18857551042802   21.36145423791575   -1.34212393471719
C          23.95367444642368   20.61284850181710   -0.16278013911690
C          22.98373090228564   19.69755889067642    0.18085463045123
C          21.86176548260394   19.18754409339445   -0.51548301358868
C          21.05117174336955   18.28405615490763    0.08572408871419
C          25.99631561441211   23.92042493298893    0.17313994837820
C          26.97391688147236   24.80497115977805    0.15139828950331
H           8.37307378755479   12.61519654277499  -19.17722234673882
H          10.22776108706814   14.44736007071120  -22.31557917851251
H          11.69035418072051   15.18508855514105  -20.14063979949428
H          11.46287377979504   14.64959657057677  -17.51449969230776
H           9.16242366164868   12.74926847522867  -16.83031409753600
H          11.32102351116366   14.15436451584530  -15.14018278916472
H           9.04952391518061   12.21135677611071  -14.46687587925639
H          11.97267261660430   14.34262504246597  -12.90986126163884
H          10.06959554835950   11.74017531906908   -8.46467831842221
H          11.70104476818515   12.63377005232615   -6.60409299629681
H          13.73957962467876   14.65211629816524   -7.69442997003273
H          12.57731255170312   12.72764796990841   -4.45726487448751
H          16.80833271167917   15.64401571267437   -2.53879897753368
H          15.38703307962360   13.44800510698713    0.46799869085002
H          17.56165049827923   15.47255096584086   -0.28624488450435
H          15.60452704503933   12.14401415700193    4.44896999901158
H          19.18358720834603   14.30845029766361    6.22133570519435
H          19.06376465718438   16.46309486432252    0.50620782628063
H          20.67820709683851   16.63552887958740    3.09415733204076
H          22.55168126291137   17.96981837696406    3.13732811445937
H          24.42923802142171   18.85078047675073    3.87299015089573
H          26.79865850958735   18.88530738340837    4.28600514302817
H          27.09842115791579   19.99963369889061    2.94055416325551
H          25.95745250476574   17.34478124648544    2.53846516897509
H          27.52099277909798   17.75856052562731    2.26209238254043
H          25.30296822794233   21.76116954398782    3.73289630855253
H          25.41933116703450   20.74577427729821    5.18727488586810
H          22.91149238705539   21.18153620768755    3.75896921875093
H          23.34220554330195   21.91392731006163    5.16502822777170
H          26.56774479000769   21.76173188614774    1.76399267579855
H          27.17598529157067   22.32440537398223   -0.58029725071458
H          25.41066247103884   22.80493446736054   -2.29713051213328
H          23.53346690616414   21.21922252445316   -2.18977968820729
H          21.66223477072079   19.52716793749321   -1.52162930765411
H          20.19581997355043   17.90187742095414   -0.44859149797550
H          25.00220426417370   24.19230694598591    0.50074664090863
H          27.96931482944257   24.55120306377329   -0.17538895931054
H          26.81926009597890   25.82596671657839    0.45692109169333
