96
 SCF done       -158.470295256331          0.000344325512
C           9.56554321575578    2.65468363265506   -9.87486980478687
O          10.53702163796651    2.32210025000997  -10.73576830721702
C          10.97954264888372    3.46233816399882  -11.29569941026173
C          10.30387459259523    4.53119099874925  -10.80604430032751
C           9.36225109321837    4.01464173088382   -9.86262493019912
C           8.43121651482027    4.79312025475852   -9.09457658928711
C           7.55415620337435    4.29920987308158   -8.19837998460193
C           6.65245436471867    5.11471326356899   -7.45578901823478
C           5.77650589869143    4.62170757255847   -6.55082078389678
C           4.87525232565770    5.43785386215037   -5.79439757161748
C           3.98125924948777    4.96992863729318   -4.87255440568033
O           3.14065653296046    5.80550009912783   -4.15205928277993
C           3.25453346151240    7.13218785688547   -4.42943077346477
C           4.18162585098290    7.62188087506922   -5.39470585194803
C           4.14165799077628    8.97001629591507   -5.52595859680663
S           2.96764390780613    9.66742993313231   -4.47011302689595
C           2.52950748438735    8.11875194648600   -3.84787929539672
O           5.00306803959768    6.78988628388598   -6.08815123415818
C           3.79382969739636    3.58151393367669   -4.53669579251534
C           2.94032206834058    3.15833440031067   -3.59778842459307
C           2.75099126101206    1.71114041246421   -3.27497138659376
C           2.09089793794785    1.40869877789343   -1.94427830737435
C           2.26253218368731   -0.13790858093986   -1.78580268585430
C           3.20456593405535   -0.82084434086987   -2.79228826746460
C           4.31428975344888   -1.40393975472382   -2.34617094874411
O           2.92318765556504   -1.04305341391925   -4.13401547678925
C           2.49568410202748   -0.02372915545416   -5.06468904677835
C           1.74849207056638    0.97595423214559   -4.21324199571479
C           0.70863635469504    2.00935736117030   -4.50408729818873
C           0.19120003326057    2.47219142906931   -3.36966588461241
C           0.60442787740065    1.91328849449682   -2.01613551121438
C           0.32401242416687    2.93780606467104   -0.91663423156755
C           1.58375130718516   -0.69154623241943   -6.09041235014953
C           2.28415531136091   -1.75605247274326   -6.92832366605808
C           1.29566758356749   -2.63554783257127   -7.71787545357407
C           0.52569428282686   -1.87577094524328   -8.74175218999452
S           1.10825387364242   -1.81522529150128  -10.36059105136844
C          -0.19931238147593   -0.77289841667075  -10.80485597009656
N          -0.29741013726537   -0.34055504758232  -12.13632011388110
O          -1.22369879440042    0.39372623950967  -12.42240192782522
O           0.55598374725269   -0.73402352150348  -12.91038108227406
C          -1.02979088416365   -0.48144861976925   -9.75573715697344
C          -0.62280493102081   -1.11537093917829   -8.56354779437602
C          -1.26150226308068   -0.95324652674384   -7.27644015365817
C          -1.87980946254031    0.16974022527883   -6.87766642407503
C          -2.29561114898313    0.42295233587351   -5.53037075859291
C          -2.12621334962139   -0.34059184498778   -4.41178201714741
C          -2.52140353982535    0.30562159033761   -3.21410706738576
C          -3.02046605595102    1.61210345450063   -3.45513569546282
S          -2.99177949018912    1.98853702556662   -5.15234503518082
C          -3.43494028590617    2.44522599813297   -2.43834496055335
C          -3.33679883189632    1.97715323152809   -1.13132070280143
C          -2.83304747919211    0.67354292021726   -0.88844643735947
C          -2.43374401120670   -0.16647147038248   -1.90515145679733
S          -2.78327965553166    0.32805400333023    0.82005066838144
C          -3.42724973990093    1.89614312263739    1.17809472814742
C          -3.66956237631073    2.64583668516739    0.08424622367370
H           9.09712800284625    1.85550592893434   -9.33633084199415
H          11.76733098519396    3.37991521755788  -12.01798278407219
H          10.44222118691414    5.55987653369541  -11.06864240939031
H           8.46140133124007    5.86052823217945   -9.27041686535430
H           7.51742532983711    3.23353982607180   -8.01624409077612
H           6.68443596916935    6.18002844381614   -7.63409115756687
H           5.74796408861208    3.55906011136355   -6.37219696302405
H           4.72557216284544    9.58907237492235   -6.17385781706280
H           1.77150145470695    8.02814085211661   -3.09866130720821
H           4.37468658495473    2.86454895763365   -5.09413191161078
H           2.36983642664080    3.88065106119007   -3.03679898403698
H           3.73637981460677    1.23845847693816   -3.32379019821617
H           2.59231756923434    1.91101478120014   -1.11433249557016
H           1.29386612153187   -0.64455629281345   -1.81785563211593
H           2.68364132374704   -0.34503472672987   -0.80195354868476
H           4.57694616082549   -1.40809888499983   -1.30529070929859
H           4.97302111571972   -1.92082319605279   -3.02094943259305
H           3.38648048592255    0.39422194737359   -5.55511796593394
H           1.16478495170715    0.27690616534570   -3.60714383933558
H           0.45032040251125    2.35929533227471   -5.48861515811109
H          -0.55038367642376    3.25539978561541   -3.35390725793430
H          -0.05443472512373    1.05469569699921   -1.82395653729786
H           0.93892419852128    3.82519222798370   -1.04886678392987
H           0.53602117872604    2.51302007564003    0.06230740938886
H          -0.72188485590317    3.23742854820326   -0.93687303831953
H           0.76525516340494   -1.15034707425118   -5.53525424046339
H           1.16942400687429    0.08782651682884   -6.73051513796103
H           2.85382068745959   -2.40133321129884   -6.25883553682672
H           2.98142648905622   -1.28343216477502   -7.62250948860783
H           0.60657323623042   -3.10789099032670   -7.01471747589614
H           1.86297947506556   -3.42253923621287   -8.21798135756313
H          -1.89987125131725    0.14103263834567   -9.85675495035411
H          -1.13962661999760   -1.77127896490572   -6.58313006797706
H          -2.00548828894237    0.99255931738031   -7.56782074336553
H          -1.71719539529262   -1.33478974093695   -4.42105563196258
H          -3.81336134990447    3.43445324557045   -2.64281674305689
H          -2.05792036508656   -1.15680354442927   -1.69915445013438
H          -3.58496592360530    2.15836311906947    2.20619620776516
H          -4.06878510658582    3.64380355258100    0.11668620742017
