106
 SCF done       -171.096231549529          0.000284833719
C         -12.87490094939413    1.00761716487822   -8.93458129002872
O         -12.64700414224147    0.10063594262479   -9.89496751821218
C         -13.28201375655058   -1.02934336063634   -9.53350935620265
C         -13.92000136222381   -0.86402465621301   -8.34907023862164
C         -13.66212883162298    0.48103702073183   -7.93472501838263
C         -14.14084305278448    1.09042210067433   -6.73041742617273
C         -13.86257223059467    2.36175249618814   -6.34750046736103
C         -14.29631040529418    3.00787938088073   -5.16284839474645
C         -15.11956544659275    2.47350254026822   -4.20533134343663
C         -15.53595477871642    3.07559372302167   -3.01231210856038
C         -15.21943308291864    4.31135433750912   -2.47352239371857
C         -15.68047241993367    4.77921469728541   -1.22609576332562
C         -15.21493699104800    6.01889924679900   -0.87197105521715
C         -14.36855803568137    6.59618460537531   -1.82631626995261
S         -14.17974113598072    5.52532960824188   -3.19279138015872
C         -13.70897973589715    7.82565771685733   -1.76640948125254
C         -13.69317007923136    8.74822214086329   -0.71714808435503
C         -12.89879089952503    9.84733661169474   -0.95997916195134
C         -12.27425811496785    9.83643301272223   -2.20824557951798
S         -12.71370649781282    8.38962398762407   -3.08656334592953
C         -11.39671392221668   10.79575758916724   -2.72512302394602
C         -10.86389287536714   10.76300395005633   -3.98567076405188
C          -9.93789141597848   11.68244503802641   -4.49100716463986
C          -9.41083327733386   11.71801057237522   -5.78204238425575
C          -8.48408970054219   12.71856609468955   -5.98437349791002
C          -8.24443674843763   13.49745396625559   -4.85167924860066
S          -9.23833827293075   12.95908429653139   -3.52157721003025
C          -7.32676217192535   14.54376291272673   -4.70014276686339
C          -6.46172828747369   15.06767110019513   -5.66576398732691
C          -5.63457637942204   16.05343032794529   -5.18467617738718
C          -5.81576753857299   16.33810035967524   -3.82230738305816
S          -7.08973221651068   15.33977224454711   -3.16536843629458
C          -5.07155331560833   17.23905020727791   -3.07227983160429
C          -5.25946571065910   17.47645457560404   -1.71132983882381
C          -4.45327370539685   18.30406523451348   -0.91962863337592
O          -4.69402133915680   18.47258586062458    0.43063810503906
C          -5.73437912286538   17.77593454654085    0.95351083280154
C          -6.55191067353219   16.92909983127261    0.15127960291371
C          -7.53752921583576   16.32031854987176    0.85538283702664
S          -7.48324584981835   16.77537120419948    2.51757645798848
C          -6.11753650197170   17.79430480607336    2.25588879382689
O          -6.33123472399050   16.78312384509324   -1.17930658063947
C          -3.32639121078412   19.00522434261060   -1.39669186794680
C          -2.48778005862410   19.71472023235469   -0.58561156763518
C          -1.31312609349852   20.41885626842411   -0.98024487720232
C          -0.48687107299905   20.94037920390356    0.00270316401697
C           0.70037850281773   21.60522007124099   -0.33644177626556
C           1.69064136358065   22.17968367189727    0.45361670595071
C           1.70866163537197   22.22446123118171    1.94600874391661
C           2.92169691690203   21.47262995868875    2.52344271302940
N           2.62282836857902   21.03722782936644    3.87528165630445
C           1.63358425416042   23.67603473602288    2.45076116545477
N           1.41475848721335   23.71530670939524    3.89043843480756
C           2.68371781067409   22.71303571517176   -0.44385062117128
C           3.84893949135417   23.35605796897786   -0.22579335820512
C           4.70026659067983   23.84954469749339   -1.34499396952023
C           4.21297339210992   23.47747293467500   -2.70918843271323
C           3.05419818485712   22.82854324227391   -2.91608006096917
C           2.24713948933640   22.43179494613990   -1.82095797794446
C           1.04712692843715   21.76105560775502   -1.74365773455653
C           0.17636786994702   21.24320850592499   -2.73294212214734
C          -0.95369282706194   20.59595838617447   -2.36163640332292
C           4.76265194899395   25.36035663652090   -1.24829363049812
C           5.86592864627495   26.04994073241604   -1.03383034978202
H         -12.43624220800758    1.97617705549536   -9.06657754895636
H         -13.20327864115374   -1.86828357350745  -10.19627781616664
H         -14.50243243924649   -1.59109487655773   -7.82124188627344
H         -14.75628178490436    0.45618081746520   -6.10869181097721
H         -13.23467025092381    2.95531239326018   -6.99872369883208
H         -13.93030002083583    4.01440670438290   -5.02438046842562
H         -15.50038487323362    1.47364481253788   -4.36594942920991
H         -16.19851338734129    2.48476628240833   -2.39035338793755
H         -16.33932705127691    4.18729576951280   -0.61493577665156
H         -15.46626372365499    6.51626607094081    0.04764671851975
H         -14.24502244835561    8.59429793405412    0.19262445202190
H         -12.75865229504988   10.65502568899012   -0.26308380741327
H         -11.12981625403469   11.61253730158088   -2.06604933649157
H         -11.16629662361657    9.96850395189462   -4.65692060511348
H          -9.71351061300801   11.01490091058330   -6.53806765314284
H          -7.97678501802452   12.88726651325557   -6.91709507288392
H          -6.45148070915391   14.71976005307406   -6.68313906041732
H          -4.89868233867992   16.56836053253401   -5.77686590047542
H          -4.28823118603216   17.76558073356598   -3.58999840209603
H          -8.27984184132801   15.64064916912871    0.49364054161386
H          -5.68156260877350   18.34100998766229    3.06521774212370
H          -3.12770403181133   18.93823336398898   -2.45215455842257
H          -2.70730767512851   19.72071136950529    0.47365977605377
H          -0.75408836385115   20.81135057558176    1.04201245962575
H           0.82269423562907   21.69923271058166    2.31638673132042
H           3.81517813806326   22.11518861335404    2.45930232259526
H           3.10809396962587   20.58066892713485    1.91536294254284
H           2.40093160970455   21.85562227889541    4.43615299456198
H           3.42844967955938   20.57615879755240    4.28452011298263
H           0.84260497720398   24.19574445172794    1.88256578616757
H           2.57619594401647   24.19102728367083    2.24828518516247
H           0.51598501501993   23.29769080714392    4.11235354315793
H           1.39698016865066   24.67629583666917    4.21594817517470
H           4.20912258174537   23.57644054689002    0.76868369590681
H           5.72112917576374   23.46693084487196   -1.20667974776137
H           4.83883967281585   23.78916336547959   -3.53207721862366
H           2.72782717070570   22.58861691722469   -3.91814927334125
H           0.42501750354638   21.37007418011331   -3.77699420032440
H          -1.61751705848313   20.20880440090367   -3.11883380251100
H           3.80932427035134   25.85356858727879   -1.37886968855597
H           6.82360403584576   25.57257600147204   -0.90300347379774
H           5.85972159289798   27.12562684798756   -0.98281141245060
