78
 SCF done       -136.373895661557          0.000613028220
C          -0.75500791463626    3.76592972341981  -12.00530333720206
O          -1.89402211324461    3.06125152229069  -11.99666627846841
C          -2.54473411662110    3.38030264870581  -10.86221729491688
C          -1.84130439031709    4.28410372805703  -10.13636440764470
C          -0.64935704786631    4.55321338294793  -10.88091700335243
C           0.43399281873431    5.43439981095317  -10.56508473113051
C           0.51211823963829    6.20737071381648   -9.45600247232231
C           1.60175250345287    7.06536089871813   -9.17988288596073
C           1.69060170194625    7.84831739305551   -8.06379635295009
C           2.77429283027793    8.69159150061750   -7.78990685437591
C           2.89550818994191    9.48196143992125   -6.66983105720820
C           3.97604608444718   10.33154003944751   -6.34593039930383
C           3.83756171702957   10.98772103007768   -5.15679894386909
C           2.63829784371265   10.69588471405100   -4.47849749256538
S           1.68237878453192    9.55922273424722   -5.39974368397696
C           2.21680833953950   11.19300567216624   -3.25278567540328
C           2.91308613904803   12.07581419587721   -2.40643186959501
C           2.24432256869526   12.37303592401611   -1.25174953091507
C           0.98929665299913   11.74479745531234   -1.13735461962931
S           0.67720370095333   10.75435701727052   -2.54501231293107
C           0.09800980359502   11.86440056580553   -0.08779503046849
C          -1.14283894023205   11.24464913548977   -0.03208733101095
O          -1.59958886460803   10.45231034878883   -1.03226146809386
C          -2.84281677795627   10.01620655472809   -0.69825162331753
C          -3.19649997604472   10.53678566437523    0.55734691420803
C          -2.13029804811834   11.31026056107913    0.98400545870332
O          -1.95228646078026   12.02554295329352    2.11060635145527
C          -3.02031264348883   12.00452960136670    3.03355417107801
C          -3.53507851161418    9.18709677159919   -1.58202183594879
C          -4.80948730163560    8.71327209397013   -1.35882191116602
C          -5.50502412091508    7.89636268207615   -2.23971861188094
C          -6.79389409604403    7.44129688764091   -2.02027807728700
C          -7.56623449077891    6.61716262277947   -2.85891139027329
C          -8.81763971112883    6.33849834527730   -2.37954290878468
C          -9.09408607929348    6.93234694906274   -1.13483874635447
S          -7.71524002091382    7.85479482073562   -0.58496190633988
C         -10.26042120128245    6.85272069719353   -0.38861703870660
C         -11.44490410859847    6.15789724453764   -0.69480725760029
C         -12.41993498978121    6.28201472538664    0.25181091046709
C         -12.06191709344619    7.08440595263915    1.36249047329939
S         -10.42495293260449    7.67417933721709    1.14972917728179
C         -12.87869516642210    7.35243739266844    2.43504305344386
C         -12.59704675328426    8.13907618422508    3.56506168020370
S         -13.83444391273484    8.30385997886577    4.78715360460693
C         -12.81462717386571    9.33009453510227    5.75832441560742
C         -13.22092442707479    9.90075844099101    7.03733328769428
O         -12.49563674132377   10.60873206690412    7.68960434573541
O         -14.46454191454631    9.60054786641186    7.47148160164597
C         -11.59265682497254    9.51663620430596    5.14622502001956
C         -11.46560714056922    8.85818250193627    3.92950443049653
H          -0.09893829354935    3.63882711076339  -12.84383631949474
H          -3.48848449250415    2.90175923522861  -10.68915200412639
H          -2.12456298715453    4.70839439467239   -9.19579361430875
H           1.23863354397882    5.46385399686046  -11.28845079026921
H          -0.28885630158954    6.18243035145559   -8.72998957077453
H           2.40779619082657    7.09363223809201   -9.90239234355396
H           0.88655325674183    7.82420285021456   -7.33846542047007
H           3.58695251760411    8.72756565208643   -8.50438578296832
H           4.82531939391967   10.43073388170958   -6.99895944945484
H           4.56542503011243   11.67085739979785   -4.75744046245780
H           3.88240438156243   12.46673574461615   -2.65821619189694
H           2.61723492708245   13.02579051911257   -0.48240408242498
H           0.36346394118597   12.48430845522154    0.75467655976446
H          -4.12081103860845   10.35314008508119    1.06451712460107
H          -2.70818952521579   12.62878736352035    3.86822002420000
H          -3.21525122524385   10.98810791644587    3.38821846045353
H          -3.93287837240152   12.41363802599128    2.59015351088815
H          -3.01839082955182    8.92403768472179   -2.49427445642771
H          -5.31507305374416    8.99324617492912   -0.44434011524901
H          -5.02507463982071    7.59186867218013   -3.16042982765332
H          -7.18172399161216    6.25069651964939   -3.79460519036434
H          -9.53788119294301    5.72612168271252   -2.89161106737887
H         -11.55217782272338    5.58616123105009   -1.59916100033701
H         -13.39013362720675    5.82184679432816    0.18769201608599
H         -13.86215868236685    6.90095385410435    2.40355701223848
H         -14.94126966756413    9.02569611416497    6.85793180141153
H         -10.82777117606907   10.12315024396089    5.59664355304901
H         -10.58020217474971    8.89832457600177    3.32337507193467
