72
 SCF done       -135.110921848518          0.000426157883
C           1.30865597734346    3.17480173189351  -10.92147244513361
O           0.10924170988829    2.71964227162881  -11.29823399762173
C          -0.78648447551979    3.17856098476277  -10.40303198945217
C          -0.17997828091699    3.92700715680469   -9.44970694800177
C           1.21316424356133    3.93624711963706   -9.77752149913115
C           2.29491836133920    4.57896313731954   -9.09617642318049
C           2.16520079235743    5.32829508143501   -7.97535177744586
C           3.25109962062805    5.95335337865692   -7.31989375364918
C           3.10501956564489    6.70386607366406   -6.18774280546628
C           4.16029630057189    7.33332333036070   -5.51503744065360
C           4.00068236976510    8.08117490428875   -4.37086984899001
C           5.00311103870694    8.74757646318944   -3.62883445454312
C           4.53790386323869    9.40952787992741   -2.53021060475075
C           3.14283623641061    9.29917084925622   -2.35121308758168
S           2.43426354876707    8.33109970173236   -3.61618635889820
C           2.35364605378498    9.84502953902584   -1.34963741556799
C           2.73776233103805   10.63960342278184   -0.25284988596866
C           1.69310234643296   11.01271456053041    0.54251133248716
C           0.43248018038040   10.53348332049651    0.11167821979415
S           0.62585538194534    9.58300501071623   -1.34317085024119
C          -0.76397229894680   10.78836129948022    0.74791495847659
C          -2.04708466636926   10.36761921705412    0.38388030893120
S          -3.42324723436209   10.83898416522911    1.37673413904624
C          -4.60730004845148   10.02163873146520    0.38413743544524
C          -3.95091354121536    9.40465875077458   -0.68524747137168
C          -2.54317594265910    9.60524153346598   -0.67041562260533
O          -1.96942873271643    9.01173806880896   -1.73505459848674
C          -2.98487169530972    8.44602016199457   -2.43345439360174
N          -2.66338128307366    7.75635857308829   -3.62109391867775
O          -3.59610686098101    7.27944976089867   -4.24388961517115
O          -1.49542572879232    7.68278122871300   -3.94427309935203
C          -4.21321656251786    8.64651844608217   -1.85314163010582
C          -5.98746935789980   10.04628730727628    0.66776114278456
S          -6.66909735424506   11.11770977738016    1.85543362053536
C          -8.28763324630499   10.55949882793645    1.50954213722939
C          -9.45252160127415   11.21289574259469    2.10931501368646
O         -10.56776580558136   11.11569459288932    1.67091848958300
O          -9.20828507882936   11.98591401493910    3.19075452027328
C          -8.27328157451759    9.57491474665951    0.52803991020405
C          -6.97339885420266    9.28880438471234    0.07196884782669
C          -9.41931041316846    8.86271567821331    0.01994260821264
O         -10.46393066802823    8.56695289505992    0.81495341061500
C         -11.32648105423592    7.84692346274062    0.08968235570129
C         -10.86272827631158    7.64864967508590   -1.17351463485942
C          -9.60617155201066    8.31097543511710   -1.24206083576487
C          -8.71366926608360    8.43497368742664   -2.36488958597110
C          -8.64392720981633    7.56793568460750   -3.38663724363002
C          -7.70713707145442    7.64118920626947   -4.48713411309354
C          -6.82283570560893    8.61074092867153   -4.71332569127061
H           2.15410376855381    2.90665905849151  -11.52409777183587
H          -1.81208892484315    2.90559662146494  -10.55350756573710
H          -0.65183901721431    4.41117737561721   -8.62083214459649
H           3.27572151853107    4.43803230392639   -9.53238657978503
H           1.18622464604111    5.47085687627479   -7.53946778140650
H           4.23888336498261    5.82236764915972   -7.74418201798800
H           2.11264815785377    6.82783698375354   -5.77136054634543
H           5.16300423878684    7.23020194230975   -5.90989993935064
H           6.03609798926098    8.71835838080625   -3.92844530427262
H           5.15652869236236    9.96965091947829   -1.85213514080887
H           3.76161546670744   10.91602073233428   -0.07530294895524
H           1.78804094967165   11.62000276185822    1.42531539302525
H          -0.71069831675414   11.39430632142323    1.64288319638811
H          -5.14420581294713    8.29392748484779   -2.24698212078777
H          -8.27866091292137   11.98663691083814    3.45404984435902
H          -6.75830275015881    8.50973648952110   -0.63331225573973
H         -12.22746982461200    7.52947187747474    0.57652544514240
H         -11.35369686030969    7.12220484949380   -1.96548295952952
H          -8.05231107387254    9.29007259162741   -2.33635224271301
H          -9.30341094911276    6.71028409306457   -3.38780480868944
H          -7.73825209826550    6.80195196062344   -5.16990605020372
H          -6.74168988761063    9.48100423293410   -4.08302620227576
H          -6.14280084432214    8.56420967954379   -5.54503390874316
