80
 SCF done       -143.822536293078          0.000712908676
C          15.98870796899180    4.61163106598797  -10.33095003153203
O          16.11645749843870    3.77502258230348  -11.36952508627484
C          14.93353970025128    3.15115555537575  -11.51893562344885
C          14.04116665675269    3.57478021201607  -10.59016969381357
C          14.72539286088066    4.54436903718635   -9.79207897206903
C          14.24309514027671    5.29748275873345   -8.67045224357749
C          12.99929477921108    5.21209674857919   -8.15448830814669
C          12.56633830476104    5.96712989989889   -7.02961035541843
C          11.32192510935193    5.86709641475051   -6.50134906212781
C          10.84938978555150    6.58099358980262   -5.37141766987035
S           9.20523749631223    6.29196518635545   -4.80915132499431
C           9.41613484821717    7.40270213493062   -3.52408164724019
C          10.69440817191029    7.97046849734864   -3.53708184908417
C          11.49873765264634    7.51304992983800   -4.57286894767097
C          10.77776090581305    8.90122329591238   -2.39905970827134
O          11.70871611605697    9.60854397221163   -2.08530371779656
C           9.42685272685259    8.79002843885588   -1.72335704080792
C           8.65382719062901    7.89735017894921   -2.43958666089095
C           9.03686621261646    9.48797212368551   -0.56690112652368
C           9.85801169609115   10.33724486572837    0.12283011973800
C           9.48874928756945   10.99588991820843    1.31535388275859
C          10.27915761962032   11.95351549645030    1.93572747967312
O          10.03491167222484   12.37806344359478    3.23047338690649
C           8.90684248761923   11.89122753119779    3.81321791153716
C           8.03139276423478   11.00009983489815    3.12669368998018
C           6.94892209446522   10.65279551837079    3.86624495970146
S           6.98292307481414   11.40805836744853    5.41619089074994
C           8.47230801555460   12.19984590828367    5.06053812717175
O           8.30298482964171   10.54966377148939    1.87336270131989
C          11.41509969793039   12.59544593925779    1.38565963838260
C          11.69909094669375   12.77219514494320    0.06141674753533
C          12.86519493635495   13.38136824540599   -0.43458090265452
S          13.01047436962155   13.63114739798148   -2.17312455728433
C          14.55818921726720   14.33521576131877   -1.97152328090713
C          14.94231901657763   14.36760733167598   -0.61777039309926
C          14.00100296459699   13.83534786483242    0.24080862177069
C          16.28025718044040   14.98483181853031   -0.55057391026596
O          16.95114798394606   15.18994068791889    0.43436669851575
C          16.61789281815132   15.30202754450798   -1.98986651996547
C          15.55505887394365   14.89234573437185   -2.78817205576890
C          17.79100354638908   15.90422238163925   -2.45095820667331
C          18.83499327560509   16.31066255391087   -1.64715197189528
C          20.02183490192644   16.91521312287965   -2.05870554960522
C          20.46296935670529   17.25181769912493   -3.32701898225180
C          21.70545047596368   17.87228581599888   -3.59543097364905
C          21.95025645162653   18.11956794353140   -4.91368048560709
C          20.90904085123081   17.70449639262543   -5.77135059695643
S          19.61083035035414   16.99199783294050   -4.83477575679486
C          20.84252578281513   17.80817002416578   -7.14504768162247
C          21.81606985394692   18.36552589392242   -8.01611411210293
C          21.47739668082281   18.33221174725407   -9.32589130053515
C          20.19812378411695   17.74237624401133   -9.59084975880037
S          19.46527176884851   17.23475210535440   -8.06078424841709
C          19.59999432789299   17.57166365430831  -10.77891436311217
H          16.84268536613919    5.20067018732211  -10.06034381497453
H          14.85459208506341    2.43603653319345  -12.31375780132018
H          13.02921597644110    3.24574974137284  -10.48008611327666
H          14.95866309240994    5.97517240687148   -8.22262591791234
H          12.27921055395020    4.53739863407652   -8.59685861139298
H          13.28519687860713    6.64316554221191   -6.58797399941800
H          10.61420516278233    5.18716523428368   -6.95862010906235
H          12.50980126211026    7.83378858851260   -4.74237105985155
H           7.64308499148241    7.61426212391456   -2.20867674383113
H           8.02127316270719    9.33842987514402   -0.22241381680990
H          10.86737028788059   10.47897296681150   -0.22333724452362
H           6.14392276988269   10.00332827281779    3.59379776507156
H           8.93582496228998   12.83994958534556    5.78128800733878
H          12.05174124959481   13.05919068030604    2.12654888548963
H          10.98184298348885   12.46370125462760   -0.68477691991216
H          14.11769565955018   13.76552218673639    1.30651476223510
H          15.50892280479475   14.98854693554415   -3.85757447788185
H          17.85184334003679   16.04976607348715   -3.52194943834325
H          18.73008524232381   16.14624660920143   -0.58423091492544
H          20.72200495467666   17.16643524190938   -1.27044331424902
H          22.38635681149617   18.11996411660242   -2.79972076642400
H          22.84559441569353   18.58473973340441   -5.28483682253389
H          22.73725121018374   18.77289853654864   -7.63871637674817
H          22.08675491901556   18.70610131975846  -10.12932594852833
H          20.08099520400625   17.89148546048804  -11.68626827688655
H          18.63318257225555   17.11071899868936  -10.86416110950880
