71
 SCF done       -123.473125499837          0.000756506756
C          12.04518000844032    5.42899209708675   -5.94029384882475
O          13.18226488326191    5.37927037877465   -6.64750518262176
C          13.71210193032453    6.61583610427934   -6.63605072205326
C          12.92896262311917    7.46668597877746   -5.92799319005179
C          11.81962301124601    6.69671529428564   -5.45959429370374
C          10.73220408271372    7.19570961610574   -4.66325908923503
C           9.69130987812884    6.47047711006384   -4.21566995908183
C           8.63583842252354    7.03064992649514   -3.43053399695387
C           7.58229120653633    6.32891758926481   -2.97585219442646
C           6.50391906721594    6.89370053520689   -2.18807906835550
C           5.46117214615449    6.15604286302124   -1.76332286025705
C           6.57377866423212    8.26895967716369   -1.86708758069840
C           6.64557370012182    9.44760040187598   -1.59887660903024
C           6.76389734469784   10.80281280993473   -1.29310200749179
C           5.74509127960053   11.52122063996137   -0.77378044351943
C           5.75202079004653   12.89827965910811   -0.41449984566164
S           4.32684316437400   13.50986553241552    0.37317953316471
C           4.98531169978161   15.11098091707068    0.55180939649047
C           6.26346466129171   15.14378056669406   -0.00254078044490
C           6.68708145070475   13.91439361288441   -0.54307404736778
S           8.22544283228610   13.63617056644388   -1.35719620957355
C           9.00087326729817   15.17658832697691   -1.72821127982659
O           9.94182222638216   15.14528427619904   -2.47398254014396
C           8.59701033430444   16.47167949914924   -1.07079749530039
O           9.25563455937167   17.46240400487135   -1.23712223438736
S           7.23083822848139   16.61330845436038    0.04129724370791
C           4.23897159120687   16.15410993398589    1.16114154431084
S           4.91548700139621   17.75628485293234    1.30360260370192
C           3.46460217852106   18.37508394663989    2.02459276300341
C           2.50881960020375   17.37859063599911    2.14230025134041
C           2.94980755542076   16.12583739066486    1.68084737786410
C           2.09044032543324   14.90481922695198    1.76206872921210
C           0.86603680127595   15.12835668473470    2.64514543566167
C           0.19234980401737   16.45562858745076    2.29330723409604
O          -1.07169476626966   16.59348762672538    2.89575964341732
C           1.13146810589619   17.60240709563776    2.68000617281120
C           3.37894143046611   19.73451831125216    2.44711251695392
O           2.30138097433225   20.11657033699749    3.18167239479923
C           2.46587253443361   21.41178917757227    3.49662449871433
C           3.62852501431734   21.89363670766477    2.99219437747779
C           4.24948806445893   20.81591654250466    2.29704415389359
C           5.49175027703164   20.85479748779235    1.58241970529192
C           6.39829623152399   21.84413325025912    1.66851667806749
C           7.63372478722426   21.83864104924179    0.93355933123757
C           8.54911965117551   22.80219017380802    1.02377671425523
H          11.48832201328274    4.51815792009870   -5.84840111776161
H          14.63576254825606    6.75814523684806   -7.16106938847429
H          13.09977110952759    8.50854374000368   -5.75028347068629
H          10.78326470306143    8.24931717009462   -4.41979993589209
H           9.62681596829936    5.41643486064982   -4.44901254545131
H           8.70523574929899    8.08660662840064   -3.20136680174167
H           7.49809067992057    5.27305247939412   -3.19791331291942
H           5.39105779090352    5.10653184357234   -1.99167914967964
H           4.66705925020249    6.58629791494660   -1.17846925447518
H           7.72832871881756   11.24744187948764   -1.49070961819031
H           4.80613332762525   11.01695963639878   -0.58158024620732
H           2.67224282114273   14.07034251602965    2.16232484726781
H           1.77216464290992   14.62183584315381    0.75350241794431
H           1.16611219536101   15.14894452583020    3.69658481934280
H           0.15862071543446   14.30921424192229    2.50897939287145
H          -0.00851668594193   16.48862147024521    1.21693242799743
H          -0.96399067557740   16.56216772029428    3.85382186348096
H           1.17391546492638   17.67994384350320    3.77272288950818
H           0.73233905060319   18.54781171921495    2.30936147062039
H           1.69045460347880   21.87175378298751    4.07711399473827
H           3.99925248953261   22.89283485152886    3.08462238856199
H           5.70182799846859   20.01786178478589    0.93129864453796
H           6.22887763093263   22.68766401376962    2.32382947962363
H           7.80254168659627   20.98979366269440    0.28364005198411
H           8.40782474134099   23.65706516235117    1.66508915418787
H           9.46727283702844   22.76860009439412    0.46419817836740
