77
 SCF done       -140.894587427243          0.000776836983
C         -12.23786111327445   17.56359245110281   -6.50164104703714
O         -13.04355121655649   16.56548008973686   -6.89176816566964
C         -12.58248536024085   15.44107653119021   -6.31328717918867
C         -11.48875994493151   15.69848591601224   -5.55476455534297
C         -11.24509736900253   17.10377974156226   -5.66793197563793
C         -10.21370639037974   17.89221113861765   -5.06069395019925
C          -9.24797137794791   17.40793190710959   -4.24692913553339
C          -8.24930544941529   18.20974655447817   -3.64173045502000
C          -7.29498047198881   17.71129777241869   -2.80532926204232
C          -6.31890006580295   18.48717078023526   -2.16067439239665
C          -5.38822729501135   17.98435736250004   -1.28608068192721
C          -4.41480342657666   18.70945309599205   -0.55640871691358
C          -3.65556296611754   17.94862027158385    0.27982876103782
C          -3.97495121617185   16.57263331261438    0.25351556609716
S          -5.27357946663227   16.27594739927088   -0.88426498199610
C          -3.41869377625211   15.55337852390860    0.99826701553956
C          -2.44051107249620   15.64690785604617    2.01614780106478
C          -2.14399182121488   14.45980612489833    2.60797455563290
C          -2.85845731392728   13.34996302831530    2.08371481759578
S          -3.92613436003534   13.88846251494330    0.79478264384014
C          -2.75126374189457   12.06397066200948    2.53101572135997
C          -3.40987440776636   10.91476735034577    2.05538378143565
S          -4.44523746173768   10.90614361269628    0.63041790775770
C          -4.74439047591618    9.21418242889307    0.82244203874273
O          -5.53282431889432    8.53253296176173   -0.02308953279502
C          -4.10273070950187    8.66959841775715    1.92922381604564
C          -3.34495886899504    9.65801171461425    2.60467518684428
C          -4.24662399039566    7.29951955765382    2.31328673424009
C          -3.72254695435993    6.81240856966602    3.46729199862036
C          -3.84377496554001    5.50718195629752    3.97537873481937
C          -3.33139008395807    5.19091967538155    5.21129730890111
C          -3.36560856189006    3.97259488662804    5.93069386581482
C          -2.78736286013456    4.03241680576482    7.16691472888577
C          -2.26408972615910    5.30287459400569    7.48711927318482
S          -2.51297383159034    6.41626131118043    6.16963066372058
C          -1.63729291992649    5.77930984542293    8.62595818442275
C          -1.31309181769507    5.15910472890654    9.84764612209343
C          -0.70723315136726    5.99529778802418   10.74018400017491
C          -0.51983300603563    7.32100080134482   10.26838364639622
S          -1.14198397713359    7.45769749746898    8.64117080867565
C           0.05113211499213    8.35712400913871   10.96498282710060
C           0.24950256475124    9.68171804941667   10.52692851954035
S           0.98094387339004   10.83666545697841   11.63838167728017
C           0.92618245918948   12.15153122237439   10.52952585250406
C           0.37103697445559   11.74223208453341    9.34192986519904
C          -0.00707455442836   10.35995949916118    9.34460694101611
O          -0.54135365365025   10.01960841548461    8.15033549120058
C          -0.51098379023589   11.14773313781143    7.39457592480987
N          -1.01263842327085   11.08451873935564    6.08666654836373
O          -0.95469304700300   12.11641379978356    5.42617153456101
O          -1.47613056163694   10.03573317023992    5.67612944240516
C           0.02777974316323   12.22626893503433    8.05217992916651
H         -12.45446014631569   18.54735388164870   -6.86868064927740
H         -13.11436471539659   14.53278922002489   -6.51707143311139
H         -10.92481826144337   14.98924393588556   -4.98573315674323
H         -10.23894474983942   18.95068134380817   -5.28589802068242
H          -9.22187391622887   16.35009194580161   -4.02328157941582
H          -8.26427997036346   19.27170565171502   -3.85236482933462
H          -7.28534293571327   16.64752191397282   -2.59980978467884
H          -6.30575231268538   19.55414555374298   -2.34243571772420
H          -4.31532168493676   19.77523741319563   -0.66716708015256
H          -2.87643807385013   18.33657313969649    0.91162347252351
H          -1.99913639817857   16.58863936282586    2.28960783397265
H          -1.44231519438913   14.32374085330787    3.41171473627779
H          -2.08657265645649   11.90315462620828    3.36989335804461
H          -5.88029915968623    9.11264581971909   -0.71134299177260
H          -2.75980519870145    9.46949128293167    3.48634168932117
H          -4.82611915018512    6.66913527295651    1.65321940150071
H          -3.16784709165238    7.49783792880054    4.09416324139135
H          -4.36080299664391    4.74719636424832    3.40622543120879
H          -3.82117810565498    3.08932246780430    5.51752370276440
H          -2.72819572447818    3.20409231407764    7.85107146240950
H          -1.53406940026438    4.12372538716824   10.03920230601408
H          -0.38917573912375    5.70479239555823   11.72609540555815
H           0.38840941126297    8.14607013015989   11.97082575915870
H           1.29564854404674   13.11342942071222   10.81483287200783
H           0.15027923294450   13.21113831622498    7.65241836669721
