60
 SCF done       -106.556440401856          0.000975053506
C           1.24206382474000    1.45635764186610   -3.50964100548569
O           0.18059431530650    0.66286870783303   -3.69644512460092
C          -0.86812857823319    1.26175208902226   -3.10250413122645
C          -0.49827239550481    2.43560056672388   -2.53360375885241
C           0.90060443105246    2.58173529958138   -2.79467641784683
C           1.78936486963782    3.64159795759959   -2.41534195611728
C           1.41498512075026    4.74974928959857   -1.74083544258840
C           2.26548401097797    5.82566845594815   -1.34692821272373
C           3.61447301274531    5.89429889729688   -1.49015401398045
C           4.37599093578557    7.01410349555549   -1.07832385883539
C           5.73001249138308    7.08907181574403   -1.19872900329454
C           6.55119275679181    8.18209143503613   -0.82112297297843
C           6.11490612308606    9.37500156295151   -0.32959822073645
C           6.97653275143681   10.43512371970344    0.02383664029986
S           6.35568005614631   11.96342638152594    0.61356682413448
C           7.92975132184788   12.70662471294566    0.80528121667585
C           8.90738880688940   11.77640028155709    0.42233571086031
C           8.35808581062518   10.53485701773840   -0.00556602327595
O           9.33287622156955    9.67457894552129   -0.36780506865838
C          10.49701243267479   10.35111374514307   -0.17591244203266
N          11.70504760314045    9.69135512047270   -0.47766224079926
O          12.73043358394879   10.32583483158960   -0.29486766519386
O          11.64607499792499    8.55154246424977   -0.89251105671286
C          10.30786964752057   11.62504164142764    0.29960155386542
C           8.01314996832002   14.02891613012149    1.26313765279203
C           9.17317955748698   14.72767766476635    1.45234910365462
C           9.27418718146724   16.06745215718459    1.88933406831896
C           8.23073860034435   16.89366097646187    2.19134332957347
C           8.35241449093045   18.23560256169576    2.60928312095069
S           6.88628068491801   19.15371832827600    2.93738914545201
C           7.80473480383064   20.53714211550936    3.33189525859301
C           9.17486724631368   20.30154935902499    3.21806206184991
C           9.49026189771161   19.01388843036828    2.81429076747644
C           9.86275595065630   21.56369881987720    3.58132613244190
O          11.04539941328078   21.79430466697121    3.62098075599494
C           8.74288227463577   22.52389962471800    3.90543955990611
C           7.54971953994022   21.88053241748803    3.74683256139661
C           9.03191574500358   23.87074518256783    4.30271083995490
C           8.12748512457566   24.80353477958274    4.60639008669009
H           2.17924761833461    1.13700792571984   -3.92113209585299
H          -1.81305162474855    0.75764679303896   -3.15278053618912
H          -1.13086554381880    3.11147235205760   -1.99692624122033
H           2.81870347491636    3.50660106161718   -2.71656847343967
H           0.37267262948223    4.85819729222054   -1.47258989641297
H           1.76836528382412    6.66752333115156   -0.87965283950256
H           4.15587556782492    5.06979352949574   -1.93290889438976
H           3.82707962353112    7.83975221957081   -0.64610121754976
H           6.24639879125036    6.23564920140800   -1.61961668468320
H           7.61689909993282    8.04891446572963   -0.94816597101292
H           5.06022742617886    9.56594148599887   -0.19628935652226
H          11.09306724746428   12.31868711916533    0.51696919413544
H           7.06353506602847   14.50252966981899    1.46739993414870
H          10.10621284384144   14.22456063603533    1.24734518176869
H          10.27755778137601   16.45914668308350    1.98019664006425
H           7.21812158111171   16.52459988187033    2.10941924241871
H          10.49022641632869   18.64896945619881    2.67075548576737
H           6.56915663636640   22.29228727070485    3.90058488993290
H          10.08890666827554   24.10227446963025    4.34357510877717
H           7.06971021027988   24.60509980143483    4.57543812480405
H           8.42128657056535   25.79665606280967    4.89708063002028
