96
 SCF done       -166.357480982828          0.000411701241
C           2.37631552595262   -4.48740768989731   -8.18211353151280
O           2.90301497932358   -5.27167017554245   -9.12555097150243
C           4.24102538168458   -5.15490363348433   -9.03682561900516
C           4.58773645054366   -4.30083308871894   -8.04263527757142
C           3.36105116789673   -3.84678810413091   -7.46348146455943
C           3.15098796651186   -2.93698230169609   -6.37649644590903
C           4.13897720680684   -2.33060213112385   -5.68448997533597
C           3.97157073474732   -1.41900232371122   -4.59748434896182
C           2.79956525591109   -1.11716514632265   -3.98529935512303
C           2.63128021064821   -0.20945820261984   -2.90480188603252
S           1.28040997890301   -0.45663441538745   -1.84134873103702
C           1.81675389641906    0.84809259954370   -0.83930758107487
N           1.07351328177479    1.16735147470824    0.30486677860962
O           1.48038802959192    2.07538650132281    1.00683956805658
O           0.07098991971301    0.50690771474508    0.51554534433988
C           2.95214859236680    1.45540857194446   -1.30576365838328
C           3.42634716692998    0.87787088965787   -2.50003612093336
C           4.52374870624228    1.39721322914385   -3.26366735998651
C           5.47821784788235    2.21972429875448   -2.77585513389893
C           6.54072778387114    2.75194856393098   -3.55479204000848
S           6.50726666921731    2.62165605944628   -5.29061916607432
C           7.94655412888534    3.57280327186464   -5.39907394875081
N           8.48229253347326    3.83424287479136   -6.66588631071812
O           9.49499516654802    4.50858009481604   -6.72352322262905
O           7.89381121713489    3.36267558992213   -7.62445554976142
C           8.42428955065999    3.96861110197819   -4.17713055237176
C           7.64998640361281    3.48390124925496   -3.10608195412535
C           8.04395016988296    3.73901194628987   -1.74036182214130
C           7.81036154879942    2.93571519127505   -0.68633781376575
C           8.20488581997886    3.16751448473494    0.67798181456523
C           9.32703421261204    3.81699492124423    1.11080667340033
O           9.57448088551404    4.06047833960478    2.44927155769784
C           8.65523250173131    3.55144879181377    3.31732227384682
C           7.52290756400240    2.81029047777065    2.87078104628327
C           6.73991320321250    2.37847967593250    3.88927516019820
S           7.37413056081931    2.87027666538085    5.41584330625196
C           8.70886933480009    3.66568831265033    4.66678583882630
O           7.28240530265642    2.59557540113821    1.54759224821200
C          10.39511652988021    4.21750110207478    0.24440517637195
C          11.43059953089442    4.98610055955132    0.64490885630582
C          12.56473854563173    5.37234087124977   -0.15096787952516
C          13.58073856419058    6.08603412928161    0.44808990529721
C          14.72244009099618    6.47167435698611   -0.28176918327493
C          15.87187447249997    7.15938379868893    0.08125471622941
C          16.24528527081392    7.72152226398643    1.41088307453044
C          15.31339515149634    8.88433921225397    1.79224803199721
N          15.46816415169805    9.96814386067151    0.83835834391078
C          16.27032625292086    6.62813978254564    2.51082396365182
N          17.02434365125220    6.96603599287152    3.69827765080298
C          16.68798416261538    7.26301600187621   -1.10437632716807
C          17.88969779719334    7.83172777275483   -1.31352168542324
C          18.52079245259250    7.85827021186971   -2.66091091433321
C          17.77197439256889    7.10569353766414   -3.71439587269859
C          16.57544554396750    6.53272955673085   -3.49028955923246
C          15.98273932388534    6.59429392703384   -2.20623708592045
C          14.79446655155280    6.11789414400530   -1.69577641497436
C          13.73247937841372    5.39796382809608   -2.29176628397878
C          12.66296402713846    5.03522419099861   -1.54329732293586
C          18.63004203878589    9.30732696369843   -3.09308350450517
C          19.76514049310111    9.91677492308062   -3.37324216315056
H           1.30754478629218   -4.45312631568774   -8.10242292666418
H           4.82922333830636   -5.72363589556589   -9.72908384067426
H           5.58043197373607   -4.02437187943329   -7.75604343286279
H           2.11515474422282   -2.75144384327268   -6.12930948735213
H           5.16298643659836   -2.52908777502744   -5.96880005139773
H           4.88290182976263   -0.97892250761950   -4.21774606739401
H           1.90423208645648   -1.65288558738705   -4.26998178388571
H           3.39324848895290    2.30058499080566   -0.80974962770690
H           4.56531651525276    1.10738270110095   -4.30479759768589
H           5.46025934473752    2.51019176356431   -1.73670887283130
H           9.31236996576162    4.56530029779672   -4.06782802724607
H           8.60935830926066    4.64983845326963   -1.60328001903263
H           7.22321866743359    2.03592937981107   -0.80470077311035
H           5.83517640435520    1.81064502056592    3.83170854575609
H           9.44770216841865    4.16465740511079    5.25781262983421
H          10.35486875294407    3.81133409130453   -0.75233919367969
H          11.42309457722320    5.35554198678581    1.66201674575759
H          13.49752653831260    6.33991269519383    1.49450671308802
H          17.26243899916946    8.12726901141997    1.33444167171718
H          15.52406000120899    9.19187234321883    2.83382547651600
H          14.27494896072383    8.55071426907741    1.74352894415160
H          16.40054325619849   10.36454614106585    0.89532054100062
H          14.80204498775511   10.70839915494505    1.02598144432785
H          16.71122157303675    5.72093302912052    2.08932820781352
H          15.25255789010445    6.39334536564087    2.82566220461402
H          17.99231884683434    7.16103779489792    3.46594096939006
H          16.63895945863289    7.78612811939245    4.15341384550050
H          18.43715601797313    8.33325229574866   -0.52654407369515
H          19.54124882978086    7.45837766215895   -2.58351694824227
H          18.23659934737385    7.07590763796001   -4.68839486198810
H          16.05654304074231    6.01256388523362   -4.28256265485050
H          13.78684253485291    5.14389468903690   -3.34037273298101
H          11.85627819865889    4.48388621147127   -2.00036677907901
H          17.68135182786604    9.81932534888689   -3.17084879262876
H          20.71772863281467    9.41694073109283   -3.30248017503073
H          19.79024743823514   10.94504925935289   -3.69192651032507
