74
 SCF done       -145.938393085867          0.000836056226
C          12.75053880948074    6.17868046589176   -3.61851177623177
O          13.69983695913891    5.80285760841021   -4.48016150380495
C          13.26960923238463    4.67872289223858   -5.08681065124181
C          12.04649959633316    4.32161550227013   -4.62616192861681
C          11.68516006252999    5.30585254969674   -3.65180651760951
C          10.46039898532044    5.31665020094568   -2.91054237015569
C          10.11758805974553    6.21345555659750   -1.95825812897263
C           8.89257717911126    6.21098082081346   -1.22474752122661
C           7.85403910546868    5.37065058740399   -1.46519833101401
C           6.63661788057208    5.34306396728693   -0.72898232065668
C           5.62538107331419    4.42983678634778   -0.96609965375258
O           4.43641041860444    4.43568060764775   -0.25728587011524
C           4.37736436178913    5.31794746459213    0.77430380417222
C           5.43299494273837    6.23718838069824    1.03964960237545
C           5.19242786050174    7.01710115252507    2.12232785043229
S           3.66758636944173    6.64225353623844    2.83439371940620
C           3.35606689598537    5.41883566244705    1.65956435537378
O           6.55136573247022    6.29203886629354    0.26390925868964
C           5.73315647609104    3.37547697936559   -1.90689637126877
C           4.79241491352508    2.40943894923804   -2.07362977255944
C           4.91484206260095    1.25765755354615   -2.88416996932940
S           3.63492661720759    0.09385682471599   -2.77286493386968
C           4.47529512988410   -1.06699403979988   -3.75997897311002
C           5.66828827280966   -0.51333997371414   -4.22058590115177
C           5.92138153404037    0.77532933140861   -3.72383132561895
S           7.33089845392141    1.74742641354341   -4.12091605027738
C           8.54035402383268    0.77850067822638   -4.95869515503737
O           9.57988905270974    1.32637627577099   -5.21592634272989
C           8.31163643611730   -0.65096954430668   -5.37886954572205
O           9.19636035416929   -1.27531394159344   -5.89418852242865
S           6.73780207091028   -1.45769422708983   -5.25234880213987
C           3.91256812175340   -2.34669966652637   -4.01056505719392
S           4.25537454999483   -3.20284786363955   -5.48183809719976
C           3.14716292463095   -4.44814346347139   -5.01625245023180
N           2.96926288938510   -5.53700651877555   -5.88285736013604
O           2.18270690482203   -6.40271384806380   -5.54588035043505
O           3.61586685267909   -5.53201549851088   -6.91488145049966
C           2.55656929746314   -4.22886468712946   -3.80107497937069
C           2.98882357304544   -3.03338032025677   -3.19598653605143
C           2.61931303105451   -2.59876575234978   -1.88248686441489
C           1.51461887088215   -2.98957020441686   -1.19877282710505
C           1.10934624242893   -2.51416637605277    0.07202293772947
C           1.66935460913434   -1.54925775099779    0.86861412356137
C           1.09386014216189   -1.07368752873831    2.08233492702031
C           1.76723562204432   -0.05675337104606    2.67775216592602
C           2.94321868377705    0.33547346676357    1.98954259893979
S           3.15303112135433   -0.66015834319578    0.56130676743610
C           3.83770883349524    1.32637905606003    2.30902731648604
C           3.77959119734166    2.23338032863693    3.40533844551341
C           4.81285841692997    3.10064029653479    3.46685367631762
C           5.78499116490566    2.94076685424658    2.42209008487750
S           5.27361295840835    1.62973369324057    1.34797117124131
C           6.91525053515330    3.63719781900159    2.24238232509243
H          12.93218388221512    7.06697815881817   -3.04627338504855
H          13.91917873966841    4.23727385730174   -5.81600121260881
H          11.46181263276794    3.47482704447659   -4.92210987041438
H           9.78763977908120    4.50930366858427   -3.16348160958276
H          10.82115670310746    6.99495638056407   -1.70649514341828
H           8.79914585817507    6.93483379892075   -0.42734748623064
H           7.93675601844323    4.67032859754200   -2.27657274004694
H           5.81204429865547    7.78537800366297    2.53467985016055
H           2.44866016125651    4.85334214401941    1.68712220217866
H           6.64169101545897    3.32469936255532   -2.47471305634145
H           3.88038199210720    2.46636457359162   -1.49687325723649
H           1.86668604309187   -4.92525093014190   -3.36126681047623
H           3.29746121459591   -1.90369500688343   -1.41618684091785
H           0.83636153463051   -3.69268111182889   -1.66352956250548
H           0.19007579859501   -2.93830400213406    0.45713547890854
H           0.18133642831744   -1.49816609086166    2.46301989821446
H           1.45796665844325    0.42138607023647    3.58990681448877
H           2.96518402926227    2.20950342132961    4.10752625061333
H           4.93674290682544    3.85925641899812    4.21923064807135
H           7.18873107892399    4.42436846207159    2.92307308602305
H           7.58502776175500    3.43273296990182    1.42627582694036
