75
 SCF done       -141.246292286572          0.000492354742
C          10.80128030034811    8.09683663094221   -7.47025420499717
O          11.66866728994427    8.65851651071969   -8.31813711259469
C          11.83652393450554    9.93601448351546   -7.93180450259935
C          11.08414965748935   10.20836057613993   -6.83714969361789
C          10.39134434336629    8.99997565503314   -6.51595201094756
C           9.46229067952380    8.82911401775059   -5.43789007526062
C           8.78904446629892    7.69443038130604   -5.15304283673042
C           7.84686731279346    7.61116944313235   -4.09363175198117
C           7.15041612801875    6.49059757047663   -3.78221492845611
C           6.17929177985517    6.45533410052692   -2.73681663051043
C           5.42463224209243    5.35448037315007   -2.39705268802186
O           4.46571521923478    5.39113323844873   -1.39791088371905
C           4.21568954000715    6.61950497932373   -0.86867091861831
C           4.99560273795607    7.75645763925100   -1.22071310610858
C           4.59426790769427    8.88780686597451   -0.59029733556085
S           3.25540796347324    8.57894076218883    0.45019510471539
C           3.23650455558054    6.90836006222516    0.02301158615646
O           6.02702459355721    7.67129560254213   -2.10627043929470
C           5.46943718649018    4.10246570192417   -3.07271495794765
C           4.54172435116552    3.13635466299567   -2.86285118985767
C           4.44403727533371    1.94438983553195   -3.62745682904800
C           3.31179449515740    1.16958690088939   -3.82288024018724
C           3.57560735106405    0.02053355823606   -4.64467783456153
C           2.70279315002774   -0.97191927762387   -5.08678151808996
C           3.18244807201119   -1.98486901866890   -5.90542795176473
C           4.52840745284945   -2.02607576665893   -6.30370174355504
C           5.39701454130543   -1.03985022622411   -5.89473153865435
C           4.91735916796683   -0.02629202640689   -5.07736301526886
S           5.83818155634434    1.31804128489847   -4.47762916381059
C           2.30028382926875   -2.99388234159183   -6.35855999146588
N           1.59181090184271   -3.81202242942267   -6.73567800001830
C           2.01357238337386    1.49022608876336   -3.27977732730144
S           1.06848353817355    0.22412570089996   -2.55956197080645
C          -0.13856748849572    1.36950767155872   -2.09397086385330
N          -1.27407211956768    0.90652916021434   -1.41420366925551
O          -2.10559315116240    1.72957507324994   -1.07995315827743
O          -1.34099574562497   -0.29187988981579   -1.20510302215732
C           0.16726371640151    2.65032413450766   -2.47027189469823
C           1.38663637055008    2.73514851481932   -3.16802883901890
C           1.87256893386984    3.99748972631479   -3.68287178451679
C           2.64066574864688    4.15369602829321   -4.77206732176642
C           3.27087005827893    5.37781093732851   -5.15273315824587
C           4.16494611589513    5.53857614743980   -6.16989056496945
C           4.75209325583580    6.82826664544357   -6.22190454080297
C           4.27123023375943    7.66945984306578   -5.18534703183991
S           3.08940877407201    6.84536497379052   -4.20389611946741
C           4.72385861057693    8.95827673310810   -5.00809826254682
C           5.68172583618688    9.43829177164674   -5.89753112460697
C           6.14357574923911    8.60688647397399   -6.94919587145135
C           5.69936027154494    7.31432452648949   -7.11960445933128
S           7.30832572584325    9.43757731565124   -7.94385138310537
C           7.18418125619452   10.84837976390666   -6.94708459377715
C           6.31028177740398   10.71804427892946   -5.92856661528624
H          10.54904159847337    7.06888727379943   -7.63644948632981
H          12.50820883167510   10.53913792748754   -8.50974592049895
H          11.01758534595072   11.13866648415442   -6.31127755336554
H           9.29204045208083    9.70638468811074   -4.82677146409055
H           8.94634741523289    6.80822948486658   -5.75177624022946
H           7.67643736256031    8.50877794043884   -3.51617117227263
H           7.31711746409258    5.58707313327045   -4.34495862727221
H           5.00868697734440    9.87091594303869   -0.66877900901556
H           2.51821680730651    6.24425986091713    0.45569914012594
H           6.22284765829669    3.96118125261213   -3.83036889368834
H           3.77606402933637    3.29717479748880   -2.11884520595288
H           1.66134022134553   -0.96177697097178   -4.80494232586136
H           4.86905577791770   -2.83072757870884   -6.93688034958848
H           6.43128668366585   -1.04635630368681   -6.20054175710101
H          -0.47761177047248    3.48720353382402   -2.27086293032094
H           1.58670850775892    4.87155664024363   -3.11086647915208
H           2.87595425354418    3.30516864232119   -5.40042791945486
H           4.41336683087881    4.75140911587529   -6.85980814040893
H           4.35394410162782    9.57765302568706   -4.20616435569450
H           6.06707232546403    6.69456964160224   -7.92186786059147
H           7.78272542211039   11.70194789798071   -7.19960550406385
H           6.10121387042182   11.49339219974999   -5.21333796574464
