79
 SCF done       -153.505533366060          0.000326757538
C          -0.29420084483126   11.36747158582373  -10.88543722906583
O          -1.32849551072811   10.70741092251372  -11.41589302707684
C          -2.10862146079819   10.29998695494749  -10.39224266404805
C          -1.58919562172221   10.68913258108178   -9.20372373129333
C          -0.38340444656720   11.39967368087470   -9.50912871308433
C           0.49592459454565   11.98921787462150   -8.54899176454137
C           1.63903438129895   12.66035095403289   -8.84880078542375
C           2.52436116402198   13.24569719184166   -7.90968092553407
C           2.35635927666337   13.22582503667430   -6.55056278516003
C           3.22628604607509   13.79146264669528   -5.61587682085298
C           2.97831228635677   13.72011660580418   -4.25728526148063
C           3.73731462801481   14.21467388887654   -3.17785714958827
C           3.19293701400490   13.95760697241088   -1.94532004477789
C           1.98117116535930   13.25144125574795   -2.00455025771228
S           1.54172438961858   12.91710376697828   -3.65546297839724
C           1.12641831027598   12.80392526395456   -0.99747378819691
C           1.19772122670215   12.89987438469540    0.39870883444974
C           0.13267173374644   12.31588200000581    1.03808561513636
C          -0.81800264981649   11.73894267696997    0.17257220685779
S          -0.31681696387190   11.95808564877664   -1.48332008164325
C          -1.98795469134884   11.09625755294181    0.54901500855138
C          -2.94833422858345   10.52350034305164   -0.27534579898665
S          -4.38569620536875    9.78770944654990    0.45712205951503
C          -5.11345578747218    9.32304843766929   -1.07636210207941
C          -4.24008640017276    9.72725243440775   -2.11634867606663
C          -3.07024038271560   10.37818165054046   -1.66238596316652
O          -2.29574630495272   10.72784873800834   -2.70447051945959
C          -2.95226777765500   10.31148793294413   -3.81917613024319
N          -2.36259874861639   10.55171673743101   -5.06304409377824
O          -2.97363938245981   10.15685261227530   -6.05043801133074
O          -1.29003030039655   11.13111012002455   -5.10585227498845
C          -4.14926622665428    9.69186477691889   -3.51786106425128
C          -6.32697490781412    8.69115218248265   -1.21521651952885
C          -7.19401926594229    8.29526230610039   -0.20055651427030
C          -8.44338876547626    7.68158435718042   -0.37842657868112
C          -9.10119044086659    7.40068398906968    0.79217880300200
C          -8.38873401203621    7.77920347993806    1.93973994856042
S          -6.86158527930662    8.50715667841808    1.50057301686705
C          -8.76285016986900    7.63021630427391    3.27234534770873
C          -9.96289146317842    7.10211567604840    3.78047021590856
C         -10.02134479316931    7.08951592704672    5.14393424044853
C          -8.86917180755519    7.61299442515457    5.78485282249805
S          -7.70880714490382    8.11562356252672    4.57612423497092
C          -8.70392681678126    7.62775220424845    7.14869240728282
C          -7.66825852166306    8.10329474723603    7.98266736090000
O          -7.69798985600688    7.60471319627381    9.24478983772329
C          -6.67880218421829    8.13565597696718    9.95681495615594
C          -5.97588786062387    9.01073708066647    9.16207191220590
C          -6.60019413078721    9.00421118575773    7.89888997969685
C          -6.18537567023182    9.91871499772984    6.80735462137815
F          -7.21941709896154   10.48741040130823    6.16374236300111
F          -5.44832603576461   10.93913628038758    7.28508424089652
F          -5.41449648526574    9.33735151346473    5.86555743547124
C          -6.46988820051281    7.76856436763335   11.32915046775259
C          -7.23509888616234    6.90829733319329   11.99903129241104
H           0.43163844068851   11.76470211059725  -11.56709447618655
H          -2.99272850736496    9.74859034659283  -10.64305904360539
H          -1.99636790871874   10.50648045282627   -8.23027572887966
H           0.18955455624715   11.86473559039886   -7.52010118486003
H           1.91340471296174   12.76321046837900   -9.89052863335533
H           3.39967324158158   13.74327240647135   -8.30914093281566
H           1.48297950823287   12.73232791946740   -6.14542629897492
H           4.12194479237514   14.29815142665442   -5.95030308648070
H           4.66168552362509   14.74368087932130   -3.33186672290091
H           3.63488534527035   14.25924203591351   -1.01212544189314
H           2.01409715537919   13.38563946914421    0.90299187907270
H           0.00994887125117   12.28794101724351    2.10653486687121
H          -2.18546041892555   11.03729117298960    1.61133362828605
H          -4.83519076205508    9.28316917565508   -4.23064964863666
H          -6.64666128897496    8.48452673035356   -2.22853133002720
H          -8.83189389494744    7.46350494630070   -1.35769893910139
H         -10.06760840073269    6.93296255305613    0.84321213318048
H         -10.75001333435351    6.74886899763425    3.13896290789470
H         -10.85868374373139    6.72528339389510    5.71219976221213
H          -9.48223070530929    7.12680133913870    7.71214481597985
H          -5.12630515902492    9.59877912683366    9.44300206665731
H          -5.62439761823175    8.25082962539121   11.79855136019977
H          -8.07594046220463    6.42773664871671   11.52942529735230
H          -7.04078242784176    6.66353131781912   13.02779577542749
