85
 SCF done       -159.758292203924          0.000529656408
C           3.74718560300684   -1.24033160079330    1.34024160537271
O           3.34415368000703   -2.51496386682039    1.30156404504887
C           4.44314507173812   -3.28561858540434    1.40155837650807
C           5.55788547359065   -2.52136470758161    1.50482629755294
C           5.11780861321922   -1.16034207464510    1.46591388971267
C           5.95775203539420   -0.00613402932432    1.54741756643408
C           5.52682292331820    1.28077007444590    1.51917387828482
C           6.39039578470157    2.39102776341460    1.61334853879194
C           5.95722223418949    3.69215330643981    1.60251471765337
C           6.80194433833568    4.79562450440641    1.71388439387826
C           6.37691906196736    6.11191807674818    1.72450184059202
C           7.17253780083668    7.26362933970188    1.85454265537821
C           6.46380828190435    8.43848811970606    1.84659195738919
C           5.08114290305152    8.26241689917084    1.70515988778577
S           4.68849515506615    6.57003040585723    1.58225209248738
C           4.09176486563406    9.25141550069151    1.66013755188568
C           4.25096408025737   10.63310343987293    1.77939419499469
C           3.06650572029375   11.33326402339925    1.69076993945428
C           1.94447470353821   10.52877189257236    1.49276622563807
S           2.40870357769971    8.84862794142889    1.43022188353955
C           0.61888937178341   10.96012499043558    1.33887995994930
C          -0.44249143749472   10.14233721006210    1.07664055479549
C          -1.75642692983775   10.59232577484283    0.87345614398864
C          -2.85365175786441    9.82822585462899    0.48197801293978
C          -4.00497828170053   10.56525062255015    0.28717663150699
C          -3.83673613832645   11.92634951168930    0.53189121626609
S          -2.20963051013359   12.26784261301822    1.03422928027679
C          -4.77369802213159   12.96165646651762    0.36724387690298
C          -6.08159247011433   12.87303399988869   -0.10844736920888
C          -6.70114793963147   14.09720479744800   -0.23954806706031
C          -5.89095631249556   15.17942623120590    0.11811129501893
S          -4.33768424465487   14.61822572860714    0.68369990038742
C          -6.15772611145797   16.52998587787673   -0.10129704090127
C          -5.24773741694823   17.54391977684985    0.14873929098349
C          -5.38632757311663   18.84794475279858   -0.36901103189096
O          -4.64660402816746   19.88785397780708    0.14863456226078
C          -3.59220715953763   19.53981206216269    0.93362680043394
C          -3.33317467942988   18.18593968273018    1.29241638491971
C          -2.21520207661114   18.03927399224947    2.04470811669343
S          -1.46009891529225   19.55895257650515    2.32724834535132
C          -2.66311412783132   20.39902033534076    1.42798775183366
O          -4.18120187820814   17.18309651729633    0.93676664882036
C          -6.26427077828687   19.26374724528469   -1.37611058339536
C          -6.92479093338094   18.60527380037056   -2.39372075404225
C          -6.77946249286075   17.33897229055643   -2.99841168342983
C          -5.66658391663757   16.45474935367517   -2.89720966332721
C          -5.69560939487154   15.13647965294419   -3.49598551107446
N          -4.68336431188174   14.27084195443635   -3.25620472020718
C          -3.64633258766776   14.68530311015166   -2.57492284853223
C          -3.54811886626131   16.03930571170913   -2.12346931084824
N          -4.56642830438823   16.86848303462666   -2.26940317296758
C          -2.38728807224391   16.50009475171086   -1.46886393476888
N          -1.44343777540748   16.85480718403354   -0.91970187496197
C          -2.61257609995878   13.76667153632781   -2.26828587318249
N          -1.76272750455262   13.04715993955205   -1.99576235453207
C          -6.74604509146300   14.71378475175395   -4.29606429357840
C          -7.79423187128154   15.60528148789046   -4.51188608678440
C          -7.81444393030801   16.90304474477249   -3.87258292348635
N          -8.91080132176610   17.58899426614661   -4.17682714562928
S          -9.82103089261790   16.70575878216445   -5.17835323743407
N          -8.87841935612761   15.40229252355088   -5.26419215469997
H           2.98963390867933   -0.48557492747892    1.27121780908087
H           4.29943176499531   -4.34773300599299    1.38762444252383
H           6.56934328008644   -2.85990510031359    1.59771206027501
H           7.01762513472306   -0.20305157303225    1.64180846626397
H           4.46885545258271    1.48359103446215    1.42537197907360
H           7.45128620156855    2.19576776204900    1.70668226370803
H           4.89549247813072    3.88582843581531    1.51010226404537
H           7.86674608524110    4.62471823541404    1.80718222556012
H           8.24205980989959    7.20274311924509    1.95231754942471
H           6.91117895111928    9.41190187996669    1.93556557644881
H           5.21084261494195   11.09359338823249    1.92730842057745
H           2.99214366067018   12.40410584922356    1.75678498542999
H           0.45030847424065   12.02708260990710    1.40961736700717
H          -0.27576439257588    9.07632038443087    0.98080410809664
H          -2.78562673419635    8.76571647409298    0.32838984377049
H          -4.94123420198172   10.14647896680645   -0.03416290925784
H          -6.54336360864123   11.93780192765337   -0.36749689691293
H          -7.69935251048016   14.23585602727954   -0.61548861763120
H          -7.09791170565412   16.79191449219765   -0.55798755854221
H          -1.79485324118119   17.13371912210866    2.42745696743008
H          -2.61851108135930   21.46125524694413    1.30937920087710
H          -6.41150729806163   20.33882604980126   -1.36008944500278
H          -7.69966965510853   19.19138304262410   -2.87652979322177
H          -6.73934315460129   13.73038466132880   -4.73321498495446
