102
 SCF done       -166.746036955136          0.000663770529
C           4.78530552467763    8.21817685341388   10.68425632270827
O           3.84257602544508    8.40328589919997   11.61411819246819
C           2.68823558226405    8.65514209686408   10.96985431861043
C           2.87498024999490    8.63544112424696    9.62723897335199
C           4.25991663342630    8.34705240502893    9.41809777439134
C           4.90416820279646    8.22746491959997    8.14203081224944
C           6.21241823792518    7.95092176327548    7.95843664645809
C           6.87163702513572    7.81720551237260    6.69830100964051
C           6.30899225327817    7.96116963461550    5.47522686743583
C           7.04067912002380    7.78232361671442    4.27369244215207
N           8.30743249776303    7.50139046509947    4.17516663378492
C           8.67536673015088    7.35112340958639    2.89926661578668
C           7.68819930893534    7.53638954796302    1.95711631443417
S           6.20054461680021    7.92283595034338    2.70640185818884
C           8.19375112339613    7.38170509749095    0.57583295802946
C           9.56423557096022    6.67075860631422    0.82969554418555
C          10.00961006920914    7.08589819406611    2.26096772446603
C          10.75202043141614    8.43949247368777    2.13239918629064
C          11.11851918374192    9.06826000228598    3.47175112955404
C          10.85495228140481    6.05755453206374    3.02052401312355
C          12.11186095085161    5.61665092141203    2.28084809785359
N           9.37856140631598    5.25181909064266    0.56440926347014
C           8.69365444487781    5.15737964659346   -0.68676789968362
S           7.23566142395067    6.29408209532276   -0.54918821290625
C           8.92274026718247    4.34821177328866    1.51062107168300
S           7.62888806481442    4.60596958111242    2.66443808285282
C           7.71844804617210    2.92147161555292    3.25049052310968
S           6.73818849305297    2.38495683102651    4.49285890291358
C           8.67503781277161    2.25873468447938    2.52850110260356
C           9.34093609919359    3.02693608864981    1.55041747262027
C          10.34662504732536    2.33403753327264    0.80015019086847
C          10.50679496165591    1.04356993861989    1.16047973905868
S           9.37288846844261    0.61544735523473    2.51366264114094
O          10.11667529818658    0.33961333941723    3.70796470815248
O           8.43245410405692   -0.36881199492617    2.06341614602331
C          11.35311092511441    0.03804810428875    0.65573321409847
N          12.16170020332511    0.13680896676301   -0.36502254012157
C          12.80550341406672   -1.01238651324119   -0.57718896249533
C          12.50100727062994   -2.03675934847333    0.30396943762345
S          11.32627179040012   -1.54863757923848    1.44476794350361
C          13.16593340213311   -3.26951052456517   -0.15863927410478
C          14.36615366322626   -2.67541901972433   -0.90744999681792
C          13.80916504070986   -1.42030060594198   -1.63298884584701
C          13.09924509397103   -1.83127345467906   -2.93797288659204
C          12.32160399718550   -0.70033552327731   -3.60102955135101
C          14.82982205345674   -0.30582913595105   -1.89791869526834
C          15.59522865490322    0.16590911295839   -0.66639936901785
N          14.95787629461160   -3.79902613758076   -1.61262041856432
C          14.71559309042796   -5.02850619673828   -0.85861264082102
S          13.97647128252282   -4.60560373411590    0.77593812366164
C          16.23234730535969   -3.64168523114256   -2.11876661177823
O          16.96044694370844   -2.55968045896446   -1.77549443982508
C          18.16970435304709   -2.68848759100389   -2.36916803800844
C          18.23754947805534   -3.84437671310173   -3.06977444147581
C          16.96609910963778   -4.48269416436088   -2.93852621570941
C          16.56912220370218   -5.70046014847370   -3.59163635232544
C          15.30075468325040   -6.03866485901810   -3.87754046809661
C          14.88331108934286   -7.25252051815419   -4.54038081454790
C          15.62186801696541   -8.34697486756516   -4.71425391219810
H           5.77645804704375    8.00269858281534   11.02992678426454
H           1.81858722169228    8.82857934260965   11.57193843927882
H           2.13812277802956    8.80024478302699    8.86835275827486
H           4.25635845024385    8.37266980618890    7.28918085971246
H           6.83484869158493    7.80557716933577    8.83050173257289
H           7.92373484019211    7.56923679922287    6.72514618184473
H           5.26411186175299    8.20438350428194    5.35543342377005
H           8.29716726221604    8.34351234556039    0.06607122801205
H          10.29953526607444    7.00399289088346    0.08835667767140
H          10.10157457896603    9.12945635002877    1.58913401581481
H          11.65326194287761    8.29730212848508    1.53399435210292
H          10.26475641776279    9.05403286125075    4.14451490887513
H          11.42368790497442   10.10102721109353    3.32045844572369
H          11.94230415166059    8.54116431728092    3.94430777459500
H          10.25124995863093    5.17835931411798    3.24050638237538
H          11.12104441211838    6.49767208198872    3.98091975655155
H          11.86045824560370    5.18723583723616    1.31437523686968
H          12.62824616634843    4.85825156066182    2.86400289871397
H          12.79516693263441    6.44773197694122    2.12798993275194
H           8.33821891662801    4.15113941133388   -0.89247235659298
H           9.32313419471010    5.52009179660032   -1.50133604596626
H          10.91367326300703    2.81708847659520    0.02136665083268
H          12.48666841454798   -3.80036216032237   -0.83771086078579
H          15.06803402564729   -2.31201723159081   -0.14149172261192
H          12.40594539659598   -2.64439419704316   -2.71505580040681
H          13.85304656763478   -2.22047332696143   -3.62603801731151
H          11.68896756285006   -0.19908220276889   -2.87264307485838
H          11.69142778502628   -1.10135943145711   -4.39133856728895
H          12.98936919740208    0.03306690583534   -4.04377670976283
H          14.27160956972133    0.54391725089175   -2.29080679413253
H          15.53277522607123   -0.63944966876551   -2.66288179493629
H          14.90758134834120    0.40141313980973    0.14240630855366
H          16.15375551045597    1.06636761245077   -0.91121956370504
H          16.30566485144884   -0.58134175576759   -0.32373718880782
H          15.63268960560959   -5.59507915056859   -0.69793795546228
H          13.99062315536383   -5.65952376690003   -1.38018289860143
H          18.86825691085151   -1.89026641835699   -2.21877277932381
H          19.06845315738991   -4.20684362202725   -3.63912197609409
H          17.38410325179335   -6.33451974221952   -3.91283684277342
H          14.51367623597440   -5.33742555658228   -3.63451310555623
H          13.86330939311116   -7.24803201919518   -4.90427778596775
H          16.63287154705929   -8.42218426237902   -4.35166436488808
H          15.23294486602617   -9.21233340553241   -5.22179995353053
