80
 SCF done       -145.795295654688          0.000287824998
C          13.25219934967335    4.46403064303729  -11.35806129053610
O          13.08980982721364    3.67796218360864  -12.43000085365599
C          11.80474785402560    3.27838028128298  -12.43361187478930
C          11.13283255647766    3.79693731568133  -11.37619506473708
C          12.07888427410582    4.58726252966427  -10.65104062780472
C          11.89078851084179    5.34899287369513   -9.45036569758730
C          10.72827409292220    5.45543806562812   -8.77357906286926
C          10.58615693139231    6.21167016427243   -7.57762409027815
C           9.41916903034104    6.30685962596428   -6.89427572538347
C           9.22878358490165    7.02821380910978   -5.68888283133829
S           7.63951445726727    7.01315673614666   -4.93246067712332
C           8.20751749990918    7.99101185499162   -3.64788352882373
C           9.55887736005556    8.31490866911480   -3.80397370564817
C          10.13408344845680    7.77748107613317   -4.94776826677731
C           9.95172583965252    9.14415228928198   -2.65027980573543
O          11.03496555534791    9.63083419245285   -2.42023870729068
C           8.69206135476761    9.24848050557437   -1.81652035433235
C           7.68690155472319    8.55249834964872   -2.45754860330189
C           8.58103979511554    9.92504652249723   -0.58872218989942
C           9.61335527852947   10.58750743348338    0.01666264867917
C           9.49821246699118   11.23413149538247    1.26676848183303
C          10.54169722448915   11.90305338802175    1.89599887791629
O          10.39352785473676   12.49073611884865    3.13721627714245
C           9.16233120755450   12.39001596113601    3.70499246786386
C           8.08874228160608   11.71753725856957    3.05424246952635
C           6.94295676684591   11.72948171256039    3.77992576586072
S           7.15948776890893   12.56396066427357    5.27320432992972
C           8.81139020156990   12.89887085945092    4.91242547656592
O           8.24201427384494   11.13579555645609    1.83571550134367
C          11.83739907863551   12.05364370078723    1.34627391357203
C          12.84917267677003   12.69292298149516    2.00379776348855
C          14.14866698606917   12.88252655592597    1.49635903119800
S          15.34250447862272   13.69564697847666    2.50433581183465
C          16.52532312585181   13.54301930676454    1.27850712269322
C          16.01653581726651   12.89672975213739    0.14449356182728
C          14.68955246418056   12.52316634615449    0.26080599334400
C          17.11428596631973   12.83041786855980   -0.84416088569598
O          17.10736261343175   12.36313145630871   -1.95624576024987
C          18.28363531758207   13.49309492645276   -0.15448980178508
C          17.88571144974637   13.89787176772646    1.09978197984174
C          19.52570183900699   13.61084289295096   -0.81322895276569
C          20.65445434762953   14.16067024469229   -0.29237648313512
C          21.88267688484253   14.26562579351075   -0.98112519407728
S          22.10952554871949   13.72091309353687   -2.63305337933611
C          23.75602262171053   14.19284252464068   -2.66022903787834
C          24.14559656500438   14.74792366840064   -1.46480986460002
C          23.07593171422287   14.78598259163286   -0.51918028769924
S          23.56302054030078   15.47820881800819    0.98960418836185
C          25.18976703515206   15.71865818946350    0.35448487605688
C          26.14776695606506   16.32207649099039    1.27955635601659
O          25.83259658240919   16.57168340268479    2.42309470779576
C          27.51999497397617   16.64311028983007    0.72572627582403
C          27.45572806909992   17.91859833669490   -0.11695784503901
C          25.34321996207557   15.29006345996939   -0.93006017599381
H          14.22608728113600    4.87996934488960  -11.19045900024770
H          11.49501101445222    2.63370896910011  -13.23222192899100
H          10.10168606572904    3.64225839708695  -11.13650972819188
H          12.76908146750647    5.86399715803339   -9.08284355664743
H           9.84697606286283    4.94421733424386   -9.13606905981114
H          11.46695377204748    6.72094235727669   -7.21239468181654
H           8.54751401794912    5.79076432568002   -7.27664090068680
H          11.15997918672285    7.91660073456049   -5.23404506425749
H           6.67535724548427    8.44622209302611   -2.11008878765275
H           7.61346748102709    9.89961698622600   -0.10375950068214
H          10.56744883776465   10.60647492667334   -0.47891535317074
H           5.99603268229342   11.30134329410527    3.52672722781155
H           9.42076119012256   13.44431922958437    5.60185145430302
H          12.01494803437573   11.64394047509149    0.36776488009485
H          12.65586839700326   13.08805430702158    2.99129368649298
H          14.12919494922501   12.01777964314306   -0.50387034369107
H          18.48920972956557   14.40103527246731    1.83259661970715
H          19.55048845397536   13.21533407406991   -1.82216555990990
H          20.65866317756303   14.55341584931094    0.71572995176945
H          24.34039039257144   14.03693510313198   -3.54448235980111
H          27.88811012360518   15.81075432914761    0.12523406680797
H          28.19436613598365   16.79874764352408    1.56897752353293
H          26.78027602878659   17.79568107290932   -0.96049294296949
H          28.44495927706734   18.16480146952059   -0.49524136487708
H          27.10138185795693   18.74909079955549    0.48900244574700
H          26.26215532026940   15.34367523686421   -1.48469097522570
