74
 SCF done       -140.361588485277          0.000740499347
C           1.02579969372158    2.49013977473032   -6.31346459137765
O          -0.21370025749316    2.01156823326633   -6.47357979879800
C          -1.00300819022576    2.66223097982609   -5.59935667471681
C          -0.28804344945043    3.55710510410633   -4.87376547305636
C           1.06226959227986    3.45637386794924   -5.33459241433824
C           2.22577128515338    4.17682697798943   -4.90484507707342
C           2.23245174862236    5.10377491317094   -3.92367323557448
C           3.36412964212709    5.84079974793118   -3.45964441118558
C           4.62036071389723    5.77925645038949   -3.96696045008853
C           5.73083900097216    6.51397287265795   -3.48049933755380
S           7.28349157964473    6.32828410733084   -4.28538385363426
C           8.01427534294091    7.42691585020300   -3.19754924255517
C           7.09898215979700    7.91065057502674   -2.25884662943768
C           5.81710064465053    7.40273629592600   -2.41414094858473
C           7.82601746002126    8.83873187217855   -1.36757368247992
O           7.38861481394145    9.46134396810661   -0.43011357123831
C           9.24418410765525    8.83067270348579   -1.89781912530175
C           9.30098009578741    7.98141719799059   -2.98147965741851
C          10.32485851443218    9.56405338661643   -1.36920939364960
C          10.24942806338778   10.38492301525142   -0.28127356220659
C          11.35961723370515   11.09301134991294    0.21647701748324
S          11.24171387562590   12.12628148804322    1.63217947075221
C          12.92627029260103   12.59769635198902    1.60308191993856
C          13.55252057993043   11.96799616461023    0.52093411681272
C          12.67158129467839   11.14323275261052   -0.22930128000079
O          13.32237292596447   10.56163220026176   -1.25732964447174
C          14.60616541694269   11.00692287601973   -1.17010508752730
N          15.52569408133174   10.55227198192721   -2.13724675433444
O          16.66798871674610   10.96527660297201   -2.03945033997812
O          15.12252616326650    9.78844345765829   -2.99100327709593
C          14.81075063432804   11.86101476765450   -0.11492785827862
C          13.46610121364030   13.46911055207333    2.55828607793368
S          15.16649693067478   13.92561743369931    2.50855262868126
C          14.96488048847318   14.90069788278968    3.89991187468111
C          13.64839902597438   14.87183817574359    4.37411806432692
C          12.80296028067361   14.07216362743435    3.62777865223595
C          13.59217737787441   15.74260867838567    5.57105225908503
O          12.63286172335538   15.98075954150737    6.26321352417632
C          15.00576402431983   16.25888929684304    5.72420930967157
C          15.77562866861634   15.73419886067930    4.71163789666614
C          15.45419185378206   17.13085993890038    6.74458464369410
C          14.67385287847739   17.62528735982371    7.73691688255884
C          15.18616792451278   18.49349202968273    8.74542426193901
C          14.47781098842690   19.04983030223292    9.81793953458046
N          15.37919065888518   19.79207756596698   10.50294385568303
C          15.29839099431998   20.55195241577293   11.61520260563693
C          16.42850764974988   21.18141701705416   12.05063717504934
C          17.62414321048989   21.00894397083033   11.31916532606617
N          17.71519599551970   20.27694414028888   10.24300537634761
C          16.62735103439901   19.66125501242621    9.81195700923446
N          16.48967426980357   18.88666502424763    8.77281510878695
C          13.05634573133158   18.92986048218946   10.22433701709371
H           1.79948902471399    2.08293447893735   -6.93507530605788
H          -2.04269330668516    2.40196413527791   -5.59081468568738
H          -0.66519772516357    4.20661893817372   -4.11238056891446
H           3.13771573376931    3.92316846368670   -5.42626122908723
H           1.30104471649975    5.32115204768544   -3.41908724328638
H           3.17837129375688    6.50583625970516   -2.62759338989201
H           4.82679351925776    5.13261638376286   -4.80829146075133
H           4.98332982899965    7.65790044475773   -1.78687213207372
H          10.17666463401010    7.76971203033262   -3.56777977869178
H          11.27507281583471    9.44881942963517   -1.87574189072932
H           9.31124584948723   10.50964558861025    0.23792954803953
H          15.73876505768741   12.32835945432369    0.14185469578869
H          11.75754033456893   13.91248115534191    3.82089432823844
H          16.82261264358138   15.92101451509568    4.55804045814377
H          16.49743813655585   17.41853410051299    6.72981817209839
H          13.62783344182971   17.36547433573365    7.78992469077680
H          14.34059103160710   20.62651689633181   12.11081200245704
H          16.40853367009102   21.79664693381486   12.93395471886403
H          18.53556545413654   21.49450146778425   11.63801053667301
H          12.52307773623751   18.28534680101342    9.53277062801043
H          12.57381514174226   19.90867115838754   10.23048514684985
H          12.97704426713594   18.50602778474403   11.22682652200076
