68
 SCF done       -150.281659245620          0.000492118440
C          -1.21790244961361    4.88337159477098   -2.42770696943996
O          -2.16441380061736    3.94533738155205   -2.37741016562816
C          -1.91385499707634    3.17556049822143   -1.30119794371067
C          -0.80731128412525    3.60906639103983   -0.64984489939098
C          -0.32989313011335    4.74215921987425   -1.38175487471555
C           0.82611690443179    5.51723279711569   -1.05026508676571
C           1.27469516028351    6.58402186275668   -1.75188196913340
C           2.42816570743953    7.35759173490631   -1.43601154100501
C           3.24547837333915    7.16989176364901   -0.36504299732078
C           4.39750284229802    7.92662259067427   -0.06243891414252
C           5.25124655433337    7.75314051032095    1.02009658382022
C           6.29047472823519    8.71710338513837    0.93217674735617
C           6.06934722536392    9.52498089631297   -0.25442364391168
O           6.69513253531183   10.45116350675423   -0.71978655242218
N           4.90406660403218    8.98288852231432   -0.79718723960854
C           7.12861396829022    8.52446220025715    2.00658384471661
O           6.67141427394748    7.49504036276443    2.76732380488608
C           5.49594245961867    6.96380210217538    2.20398063343509
O           4.91460931437183    6.04363878660225    2.70468563823880
C           8.30237582686009    9.23400847550578    2.33587615170018
S           8.83618032638740   10.52337273493496    1.30888629009603
C          10.22346128439442   10.82919541902445    2.32325242306882
C          10.24343774469502    9.95639486367271    3.40850207035809
C           9.15993334828954    9.05126276420673    3.41906749038458
C           8.92279300962125    8.05452266515836    4.38815978826611
N           8.72317073988010    7.23792749877292    5.16584126886046
C          11.29864753287355    9.96458767759893    4.46930582320442
F          11.38038861496457   11.15673676274167    5.09647581129817
F          11.10445548663924    9.05981097049452    5.42639228492447
F          12.52760512326941    9.71912978917424    3.96856260338771
C          11.10754734697777   11.86898167984262    1.92756183968462
S          12.56956126284930   12.30975222414017    2.79230175321383
C          12.90940237463366   13.52251166390811    1.64875725853769
C          11.94191956738815   13.59093281459558    0.64110080249974
C          10.92674793899290   12.66238233169398    0.79490910712064
C          12.34893200969905   14.66997082414054   -0.28349520224235
O          11.80548526294309   15.06371611292933   -1.28270507383869
C          13.64129322408530   15.20073475270068    0.30691068527766
C          13.93195407982543   14.49430098545001    1.44475597952810
C          14.33559361324009   16.25964762267638   -0.32654972200505
C          15.49164972709016   16.81353195212219    0.11731436683348
C          16.16092833373694   17.87132862857316   -0.55354181515163
O          15.68468755575131   18.39426659434262   -1.69813992720210
C          16.52186573254755   19.37215616472639   -2.10461768099028
C          17.56696587176065   19.49561152820496   -1.21164079513856
C          17.33904275690712   18.53296879272471   -0.21425095031575
C          18.18003645260799   18.26084919244392    0.97809619544603
F          18.62626015789264   16.98873072373236    1.01717874337014
F          19.26061261907025   19.04653638075641    1.03383897793883
F          17.51158802514375   18.44272023523456    2.13528454810516
C          16.25874180780495   20.10740257918647   -3.31219036208204
C          15.20993055154658   19.88909107619785   -4.10256421369648
H          -1.26951660539718    5.58790399615440   -3.23386867900001
H          -2.58750454189602    2.36385236361778   -1.11170225048337
H          -0.36975560855836    3.19458830435574    0.23457143536061
H           1.35559854437290    5.19031597948566   -0.16683590367842
H           0.72868701822818    6.88721985619799   -2.63445924119763
H           2.65127150752162    8.16001570702327   -2.12799457663663
H           3.04440537266429    6.38462371176243    0.34829803377678
H           4.49039886968364    9.33801178980545   -1.64458992222907
H          10.08819179304344   12.54756162854158    0.13118807770221
H          14.78060565295535   14.62956397795556    2.08919662873804
H          13.88271111337651   16.63436890903597   -1.23536393119869
H          15.96105104124167   16.46070258422124    1.02293441591574
H          18.38670666101793   20.18194976050850   -1.26356099134385
H          16.98927038329868   20.86925847357087   -3.54270886916792
H          14.48331717822651   19.12940339259541   -3.87080858830388
H          15.05142532011009   20.46275897633558   -4.99795661396970
