72
 SCF done       -139.023509026183          0.000544514532
C           9.36405792225309    8.49254427898551    5.45108745940441
O           8.75377220946066    9.41785211114004    6.19511493713994
C           7.60532632019630    9.73660811275354    5.57014477223261
C           7.46474496786987    9.02569355587302    4.42438371497727
C           8.62337095853243    8.19184878034894    4.32945160655689
C           8.97766431670790    7.24622048363521    3.31414702976855
C           8.22838888709843    6.95713556100356    2.22784016291772
C           8.62558486213226    6.01695532867473    1.24104749794618
C           7.87898615420398    5.70952331849862    0.15050028575432
C           8.25995349345261    4.77726349240996   -0.84532784952479
S           9.80049637503211    3.97957146390307   -0.77232282353827
C           9.41752091287561    3.09255313675651   -2.20366865164097
N          10.34150243926955    2.16592394645043   -2.69513818513093
O           9.99433728549551    1.48319038310083   -3.64604660307389
O          11.42074631135677    2.09442787171316   -2.13653167631680
C           8.18165140582486    3.38974854102084   -2.71415335420488
C           7.49765132000469    4.35685685177612   -1.95388412597005
C           6.18195913921867    4.83951946816433   -2.24977610961370
C           5.33917011711708    4.25485564940679   -3.13113301634064
C           4.01398040976395    4.73096936062023   -3.37073714128967
C           3.08353565137183    4.07147840113623   -4.14314858774208
O           1.78591003836208    4.52186433505530   -4.28852357882097
C           1.49085611956061    5.68887390544352   -3.65116008311852
C           2.45569548017019    6.37788405548322   -2.86302447577164
C           1.96925038461303    7.51749725614883   -2.31212384414397
S           0.32084948581164    7.76784289401290   -2.75004813302008
C           0.29097952147732    6.31917184163020   -3.68426130778476
O           3.72334298900806    5.90316739982570   -2.70113885299037
C           3.34269847383450    2.84429723320733   -4.82019039151861
C           2.36809011142288    2.09792011308528   -5.39676379892216
C           2.53727701616432    0.85966872421277   -6.07413863821414
S           1.24881351951202    0.42070924723412   -7.16162631278875
C           2.14473575310528   -0.95280839228795   -7.69955407669554
N           1.58476896296177   -1.78467610334651   -8.67819023414547
O           0.47483004785689   -1.48804922996436   -9.08632399185496
O           2.24100868806587   -2.73996010430318   -9.05116245932172
C           3.35450097274386   -1.07914158543026   -7.06768015218005
C           3.58761519174578   -0.07500419045466   -6.10780220960787
C           4.76358520510611   -0.16128198710051   -5.27685027978776
C           4.90261505111558    0.28535708813215   -4.01333879313413
C           6.08346473884622    0.14856710419984   -3.23471910455372
C           6.32583261780038    0.77036763235346   -2.01030600277239
C           7.62773291900095    0.46219243756488   -1.47854733363957
N           8.04459775634727    1.00516684669465   -0.30865715417794
C           7.19988720085441    1.79816254750380    0.28071111304475
C           5.90980899951943    2.11402017097768   -0.24280405860310
C           5.00993503464849    3.04629741723215    0.49661488400446
N           5.48445026483497    1.60984966096119   -1.37255355286644
C           8.33941910240045   -0.39099489316240   -2.29329668637560
S           7.46314530131183   -0.79936065910822   -3.69244307134049
H          10.30538803443856    8.11429560345978    5.79819992270700
H           6.98300840966378   10.47554037811343    6.03470719122104
H           6.65034924666863    9.08207190284647    3.73350211738091
H           9.92535468485015    6.74230584925797    3.45353990941720
H           7.28010936836698    7.45544523808279    2.08033163738516
H           9.57940777481421    5.52359001725298    1.38057153985275
H           6.92377166110889    6.19950064289385    0.01963206260980
H           7.81065383465444    2.93214827016843   -3.61281067266657
H           5.83736207701441    5.70598708869231   -1.70719605269190
H           5.64057893214490    3.36522592079667   -3.65356065818575
H           2.47888615176967    8.21753228075374   -1.68401749983435
H          -0.59812746360881    6.01942496299169   -4.19789464509598
H           4.36418428487177    2.51543910142550   -4.87279571395355
H           1.35887323649886    2.48789624638027   -5.39924261800034
H           4.03305018856267   -1.88742173742782   -7.27498249582348
H           5.58225611766393   -0.72023957678989   -5.71403368672617
H           4.09698620401087    0.79453758924626   -3.50325620832937
H           7.52603960120763    2.23869407803288    1.21427876858721
H           4.63935177265806    2.56290469307132    1.40024199208263
H           4.16562888741242    3.31501404475299   -0.13147452560338
H           5.55312545060222    3.94192171749000    0.79249941498687
H           9.32347313717017   -0.78371517466993   -2.13703654057375
