82
 SCF done       -152.406538285435          0.000565099077
C           1.67842515268594   24.73627690851399    6.09408276021881
O           0.59020082979906   25.50301966178838    5.95049879034503
C          -0.40637574939496   24.69844454245047    5.53586564458663
C           0.02352877784480   23.41914228718360    5.40901142619471
C           1.40678532177531   23.42424169703198    5.77612430233242
C           2.33365561267371   22.33457135675152    5.81842770137021
C           2.03739744605121   21.05052402476174    5.50221403189968
C           2.97343403569019   19.99381541546460    5.55765855576620
C           2.66830609477598   18.69888637592633    5.23856661507845
C           3.57770040898905   17.63878729306818    5.29559813499812
C           3.27193682425665   16.33176455018225    4.97766618489359
C           4.13042325452063   15.21515827094620    5.02442050327963
C           3.53990102123658   14.03627914739641    4.65585069548917
C           2.18821888490557   14.16504420699552    4.29781715414005
S           1.67676133700669   15.82784237425122    4.44025575988666
C           1.30468442620868   13.17159081580524    3.88186966521720
C           1.54818717739209   11.79886076463733    3.73671718828993
C           0.45081545440644   11.09027154849802    3.31608527174035
C          -0.69593252688003   11.87431168119755    3.11230538535224
S          -0.34972990618116   13.54725361190209    3.46431609105310
C          -1.94422511069819   11.41492992704598    2.70324027609712
C          -3.04933746905473   12.23369425585574    2.51449209238531
C          -4.33388904758487   11.78715118269709    2.12964097099850
O          -5.37800329605128   12.67659943361199    1.95887063619084
C          -5.11420735459648   13.98664729693281    2.19081562451363
C          -3.82238120071323   14.43487797452518    2.58581275147975
C          -3.75742910832535   15.77718225512930    2.77019729180442
S          -5.28301474145023   16.51634966431551    2.46194922013916
C          -6.01053390023169   15.00051409656718    2.08217571188591
O          -2.79107393295281   13.56746091215516    2.74667638692285
C          -4.67350685698631   10.45733167829146    1.90265766808807
C          -5.95615178050917   10.05938369757047    1.55043939444374
C          -6.33625508569619    8.75078480735109    1.33487578469936
C          -7.63149366433152    8.36652283725668    1.00183125568633
C          -8.10768940725090    7.06629648012733    0.77855559850981
C          -9.44452247724156    7.00027331230965    0.47508753196685
C         -10.07905219568252    8.25161136417371    0.44573276611492
S          -8.93545135684409    9.52015670351122    0.81199125042915
C         -11.41345238339372    8.53860762567399    0.17887301218168
C         -12.45029909614658    7.63678141268272   -0.12186346396968
C         -13.66001766402296    8.23670138173026   -0.32999901198934
C         -13.63394749633550    9.64444179371948   -0.20421662152445
S         -12.01488406264130   10.18155860672965    0.18931025597003
C         -14.69227483940974   10.50850389862139   -0.35947668532518
C         -14.58265305128247   11.90320088858036   -0.22367483412697
O         -13.40078005791722   12.47648083354389    0.07640076517241
C         -13.57248239690259   13.82110295211307    0.14221726892330
C         -14.89125356807929   14.13025302403974   -0.11968806457165
C         -15.54490763864641   12.91008368980130   -0.35497085890098
C         -16.97574026387397   12.70939750583254   -0.67371619993547
F         -17.61729946117130   11.95348104034307    0.24428752014148
F         -17.65372920560648   13.86259751456791   -0.75070999837620
F         -17.16977744229241   12.07618862281724   -1.85085277147941
C         -12.42859892851623   14.62893228922837    0.45343850107569
C         -12.43493124341557   15.95770620848795    0.54765143479070
H           2.58146560952591   25.21225974053594    6.42241047117521
H          -1.36336649839273   25.15178835421261    5.36821058584536
H          -0.55890251272919   22.57767932515315    5.09687062678650
H           3.33927338437601   22.58563793579235    6.13063286383133
H           1.03368323322050   20.79854090733911    5.18843749910621
H           3.98145738928158   20.23266275846218    5.87247353867014
H           1.65885824685126   18.46499755127067    4.92216502438714
H           4.59198828534709   17.84448244243641    5.61276533205165
H           5.15788120124227   15.30908028313471    5.32945156412342
H           4.04720923698553   13.08837835389999    4.63488756968912
H           2.50651301735215   11.35664973590382    3.94227445627005
H           0.44436879562954   10.02711792395102    3.15115931003522
H          -2.04127405370371   10.35703219994590    2.52926648233973
H          -2.91019777705928   16.35958765177010    3.06496380356383
H          -7.04174277978641   14.94247021322042    1.80449071550569
H          -3.91071884643514    9.70455801358935    2.01336372713923
H          -6.71118682411492   10.82651025494898    1.44529416151974
H          -5.60107535370476    7.96201370304880    1.43158011989663
H          -7.46173050583302    6.20835649161104    0.84667850203970
H          -9.97283168308777    6.08528109130434    0.27620965555773
H         -12.28694485735693    6.57536155372514   -0.17760119741608
H         -14.56862670196982    7.71385679046369   -0.56970261474000
H         -15.66354921810546   10.10689058854226   -0.60119611186674
H         -15.33818006132252   15.10228153326845   -0.14273268878905
H         -11.52028620003080   14.06418137303885    0.61356672178052
H         -13.32885231351503   16.53534656424330    0.39093846091772
H         -11.54069930448179   16.50477296220155    0.78613709800163
