72
 SCF done       -136.857582452323          0.000988902004
C           9.05059290798864   10.40148064511333   -6.02830999409564
O           9.53524010594013   11.51695349673370   -6.57233652291811
C           9.18326479599424   12.53995314800921   -5.76824754317892
C           8.47835817169184   12.09447317151120   -4.69942371022047
C           8.37904052782162   10.67562696410801   -4.85596668824082
C           7.74529559104394    9.70222141335928   -4.02164403609881
C           7.19601404441004    9.97337888352154   -2.81530809286696
C           6.57092600072505    9.03475469909301   -1.94713430136201
C           6.20252760663192    7.76229221532991   -2.24901677283471
C           5.61273549327903    6.88145235850257   -1.30940474613172
S           5.50598574177578    7.33154743623278    0.36654439614429
C           4.77080073866328    5.81051219792411    0.74189863776971
N           4.41047002993293    5.54558639950355    2.06712648246929
O           3.90679536385820    4.46218975530200    2.30978221277112
O           4.62610590792838    6.42171457526599    2.88769259295618
C           4.61292163464693    5.00291738509048   -0.35279589973093
C           5.08334229427569    5.59554648186695   -1.53859958935205
C           4.99981290977141    4.99094806383817   -2.84014057275125
C           4.51445879489977    3.76103893757386   -3.08087595826982
C           4.36165221935256    3.15204162110138   -4.38386758833256
S           2.84482125901940    2.20920151151553   -4.45796679550383
C           3.33820878812359    0.81629504251178   -5.41224884651923
C           2.90159081381725   -0.45410993644431   -5.20625150115432
S           3.53401178470723   -1.54374710800225   -6.37921325305779
C           4.41981445760312   -0.28055321613344   -7.13776847210959
C           4.21740410023305    0.91286484768427   -6.52136101953800
S           4.94083387081106    2.43463633754363   -7.00649984342710
C           5.24157338461639    3.18340474909673   -5.40150804578733
C           6.59897241061646    3.70723233446251   -5.39179686892738
S           6.96610039354402    5.39008012766339   -5.52029693401195
C           8.63693305032308    5.01438725434887   -5.77057835880115
N           9.52346583716478    6.07902527429207   -5.94450533475438
O          10.69767874936658    5.82896812533493   -6.13151972785951
O           9.04450411137811    7.20416994960083   -5.89313880308219
C           8.89457309873532    3.66829437642738   -5.76240787677810
C           7.73322292515480    2.90636052662375   -5.53698153028277
C           7.70895749169204    1.46555980853622   -5.46690452331972
C           6.89687455817497    0.77694693091214   -4.63204097728254
C           6.71568871337314   -0.62751367960099   -4.57361036520353
C           7.03331028689386   -1.55815914896937   -5.52165959340898
C           6.72336923898176   -2.94663360963901   -5.43719999634693
C           7.03209753757040   -3.66432048340538   -6.54445197098315
C           7.62125685110242   -2.89796684454231   -7.58308248451839
S           7.77831922859360   -1.22297891683061   -7.07594673149974
C           8.03660891492424   -3.32436859621621   -8.81853987070339
C           7.98681996459604   -4.65201934475217   -9.33638206432642
C           8.47138207080079   -4.77808534291797  -10.58945658568100
C           8.94750179258230   -3.55318517157757  -11.16925757895100
S           8.72788415896626   -2.23626177705954  -10.00493193213619
C           9.47959491549906   -3.37448097476318  -12.38464190565552
H           9.23576240237241    9.46527555713446   -6.51577019436719
H           9.49308625364054   13.52316863534456   -6.06240755332344
H           8.07418522787914   12.69026204133441   -3.90772997259687
H           7.76292316924431    8.69567960286959   -4.41449704651331
H           7.25310157990439   10.98616642130915   -2.43999243395231
H           6.35731403925039    9.39183488465148   -0.94594019498603
H           6.35289416003934    7.38865348428556   -3.25084763352423
H           4.16258455623275    4.03065753358258   -0.27646269416233
H           5.31748644979470    5.60032143357227   -3.67072549471192
H           4.10841093327572    3.17241339078464   -2.27023729431363
H           2.22613151648014   -0.80277436543282   -4.45216578288047
H           5.02311887648685   -0.47862796912618   -7.99970768740052
H           9.87807980604713    3.25664089126441   -5.89878016629999
H           8.42011260858131    0.95219289542679   -6.09633923082803
H           6.32607988185794    1.33965909440099   -3.90373089743940
H           6.19512001672468   -1.00535786396495   -3.70279036868816
H           6.26411722801442   -3.35601572341573   -4.55483730365548
H           6.84712365307968   -4.71762522020105   -6.65354718965449
H           7.59142610149586   -5.46438606788465   -8.75292247958870
H           8.51654339964346   -5.69900259874588  -11.14321992524341
H           9.59404836394436   -4.20308045203542  -13.06103833404274
H           9.80785413516410   -2.40862850310956  -12.72244263747575
