76
 SCF done       -141.816440325106          0.000459293513
C          -1.16476097825244    2.33023637322377    0.69517629977330
O          -2.20912494756687    1.58892972975558    1.08255043901931
C          -2.23184126090886    1.60217673981381    2.42765132715230
C          -1.21031781788495    2.34709266258211    2.91711591547638
C          -0.49129715589657    2.83878224082230    1.78292426165893
C           0.67155249817256    3.67699536604589    1.83140399037686
C           1.32935048346585    4.14745105846667    0.74949868263360
C           2.48677712179850    4.98225795880274    0.75971534238521
C           3.14019183850215    5.42960159407025    1.86223495225343
C           4.28854861028725    6.25815668440426    1.84851671664692
S           5.00130795311793    6.73484736013469    3.38283160085498
C           6.21860962458293    7.62778654942939    2.57541527952333
C           6.07407363198010    7.55681532544204    1.18389915105661
C           4.99516986118917    6.79124596618358    0.77275741541759
C           7.16768451293197    8.35203936984608    0.58388005874121
O           7.38984023800453    8.53848260426628   -0.58903318207248
C           7.94232505357241    8.87445584913705    1.77110929561999
C           7.33530211871522    8.41594901289853    2.92735709602744
C           9.09064475574488    9.67948352742131    1.72384377615169
C           9.69339147107680   10.12360339927811    0.57527853884646
C          10.85465938027782   10.90752484097412    0.59727315392158
C          11.61725608362241   11.38285678230174    1.67067633347822
C          12.71602085541195   12.11393990201764    1.15310833323404
C          12.63632198415790   12.10238760500119   -0.29750536011529
O          13.34439220498838   12.58967360219011   -1.15138219101500
N          11.48544834620604   11.35588082089961   -0.54628944076697
C          13.46306861268951   12.56184720042451    2.23079758546027
O          12.86947014258228   12.14606737199582    3.39116135494977
C          11.72158683148731   11.40889037961482    3.10782685190588
O          11.04179735320447   10.94205885727033    3.98657105272624
C          14.64573406954742   13.30193606209762    2.27931683605140
S          15.37913659402729   13.70552527161763    3.82323361077007
C          16.65824735852941   14.50352086955055    3.01000078798949
C          16.51091850216936   14.45623086654799    1.60464512889660
C          15.38262990367081   13.78430965232056    1.18918487584027
C          17.66886163350928   15.16536746899376    1.02599877786862
O          17.94246670231673   15.36415900197957   -0.13182201117459
C          18.47777173736308   15.60796813192718    2.22443903194520
C          17.82478041665833   15.18841525164926    3.37921046410227
C          19.67264459828698   16.30732006661402    2.06349326883529
C          20.48677163438893   16.74166160798751    3.08919878827709
C          21.68002247149192   17.42254830929038    2.89127613502282
C          22.50637651617575   17.85781898825747    3.91199788607093
C          23.73203608364188   18.54359431035998    3.77986877074703
C          24.33564215742680   18.84975438552943    4.96500563890980
C          23.61305414883412   18.42061995549614    6.09942066968632
S          22.14070551558931   17.61134281998706    5.60747373504227
C          23.94651148856389   18.57864364048375    7.42993645548179
C          25.10274956167074   19.21312911211618    7.95861692383001
C          25.16367840515112   19.22243960485590    9.31033386285923
C          24.05050822610462   18.59066266421442    9.95595843949467
S          22.93052841405095   17.98742948248439    8.72347879671855
C          23.83351604573901   18.44709513646496   11.27139453882168
H          -0.99832958211307    2.42442483234294   -0.35917790040063
H          -3.01449025123120    1.05132117962584    2.91031968110431
H          -0.98135923972733    2.53517191719748    3.94588737972420
H           1.01053082000706    3.92793344267538    2.82643456147908
H           0.95742004858444    3.87883574911836   -0.22985917676910
H           2.86202037166876    5.27187189770266   -0.21204343509834
H           2.78567186562362    5.15003560278808    2.84430792008027
H           4.72608477931425    6.62171086554974   -0.25327229010237
H           7.66627019088981    8.62734297834810    3.92774356663297
H           9.52451258363538    9.95597844658638    2.67722194482866
H           9.27649678369650    9.86273120285442   -0.38683540878065
H          11.15362174583053   11.16233094771177   -1.47884011480924
H          15.07112007152479   13.62408001351954    0.17140253743948
H          18.15078076318219   15.35262683183144    4.38948315879232
H          19.96646414707375   16.50827466637998    1.04052990018566
H          20.19146321663823   16.54254973308224    4.11134366906642
H          21.99869282500647   17.63044540710383    1.87804642709592
H          24.13401887145803   18.79079413301151    2.81307029741547
H          25.27338394242961   19.36875021632467    5.04845913916774
H          25.85079435334076   19.64161225584418    7.31562223278990
H          25.96039357712556   19.65606317187404    9.88797411540022
H          24.53854336081903   18.82804901881376   11.98894667874434
H          22.95749316313895   17.95252609418422   11.64913907263922
