100
 SCF done       -173.574973206151          0.000990555820
C          -5.82634282860991    4.56262185622141   -2.59600939475907
O          -6.58303623585298    4.22014787817321   -3.64669611600630
C          -5.88915314816077    3.30633285598126   -4.34959421415018
C          -4.69139778702396    3.05347367420922   -3.76656261778053
C          -4.63327691047314    3.87901064918905   -2.60031089742001
C          -3.58478643394887    4.00110726375066   -1.62858075480224
C          -2.41706386231226    3.32706391467736   -1.65565287146201
C          -1.40206847561579    3.49078549650601   -0.67192287387134
C          -0.21919017189615    2.83138744770447   -0.70009067005874
C           0.80496057265515    3.01341640755479    0.27876101307046
C           2.02417317076421    2.38076552942906    0.26338035651994
O           2.99735406268149    2.61876843783124    1.22582027362804
C           2.65894660638727    3.50221965696234    2.20173446556988
C           1.39025893438809    4.14956551694713    2.22291271683985
C           1.24613867537150    4.99106063075522    3.27591163214022
S           2.66171833404105    5.00736363398368    4.26184152164751
C           3.45351808762529    3.86607310655386    3.23795093874696
O           0.45243691575976    3.92059868226838    1.26567616450402
C           2.44106244538253    1.42940754423902   -0.71536659900318
C           3.67366700760300    0.86638244903171   -0.70478513542969
C           4.11677759741948   -0.11088485285962   -1.63584895122270
O           3.23114166237675   -0.69041772510720   -2.48615780743691
C           3.88709732728019   -1.64575338151914   -3.16465485789165
C           5.18712822417915   -1.71513851862909   -2.77973308581769
C           5.36967619769073   -0.70699181331682   -1.79131565013179
C           6.61066313515886   -0.39516085579182   -1.14125550210125
C           6.95247667641486    0.81006938500000   -0.64928910762635
C           8.19511452182003    1.07868013824794    0.00989037787810
C           8.52899016114936    2.29268839701952    0.47476883507623
C           9.74833006151968    2.59106993975424    1.21859232686786
C           9.61542390593785    3.21425170473544    2.46630012877094
C          10.68692092637475    3.41699803526840    3.31051488705633
C          11.96520279779000    3.02782675822040    2.92823904514336
C          12.13250712320483    2.48148525950509    1.67675939293017
C          11.04421701497674    2.26600955592242    0.82035602650231
N          11.51060805715928    1.76186883203837   -0.39275211807661
C          10.76850006387592    1.61820287094757   -1.61706281845420
C          12.87163911410098    1.61292672880533   -0.38350336721137
O          13.52717228930523    1.22175080864462   -1.32161239638433
C          13.38999162787186    2.08398869044776    0.96923641266492
C          14.34635710543550    3.27696630085402    0.74807208343279
C          14.90399772554243    3.75684716387326    2.08696273618440
O          15.58553476906101    3.13336090384705    2.86440537856239
N          14.46722573948252    5.04061739524597    2.28260750626026
C          14.76501090636681    5.80714231452011    3.46183563954929
C          13.70406031872364    5.48797199016774    1.21671605005847
C          13.08131317917400    6.70493615786086    1.05006831536764
C          12.36368056745039    6.93873787538280   -0.13392767534941
C          12.30842414329751    5.93631865111884   -1.10888425938663
C          12.93597184268635    4.71434481969772   -0.92900273025048
C          13.62751446781860    4.48613396632503    0.24027757860155
C          11.71495555884979    8.21952726013984   -0.28980306194215
C          11.05319667645835    8.66526467281901   -1.37677484632063
C          10.43696409511175    9.94662239679498   -1.46465880336541
S          10.48110044960608   11.03815925633667   -0.11422829587947
C           9.59151705996246   12.20812997390634   -1.02169274388155
N           9.27715498888199   13.43088762597597   -0.41375398273341
O           8.65180970237901   14.24344040218354   -1.06987602325787
O           9.65998325447063   13.59367309507478    0.73186250153958
C           9.28014302637164   11.78802771021362   -2.28802419851174
C           9.75609931149135   10.49330554620349   -2.56118643165392
C           9.56621862086937    9.80692172760697   -3.82391328873399
C           8.97257654881079   10.32254924334424   -4.89578296027418
H          -6.22223004414779    5.29048599701774   -1.91545273057320
H          -6.35065339363245    2.91704958247193   -5.23539734598608
H          -3.94322740857717    2.37174118473535   -4.11308062376568
H          -3.77494553077742    4.70018990132501   -0.82437819328801
H          -2.21697761779807    2.62735170773597   -2.45561414778186
H          -1.59807448448043    4.18756204330286    0.13057018843893
H          -0.02042752905933    2.13716981117059   -1.50009990328764
H           0.40071478874086    5.59582337244139    3.52791647531318
H           4.44469592853164    3.53058186575200    3.45972230608797
H           1.74439197600664    1.15796519898545   -1.48973240109578
H           4.37702456621586    1.13924544195622    0.06545088343970
H           3.32462806581469   -2.20464798554093   -3.88663332706050
H           5.93724040880606   -2.37971688524227   -3.15724796856753
H           7.32711134427587   -1.20669400895742   -1.09683121544432
H           6.28052363342999    1.64867257408276   -0.76451808221203
H           8.86577724552807    0.24230043651477    0.15921980779697
H           7.81168063571518    3.10136779955104    0.40140224899648
H           8.62500655982664    3.50619726334619    2.78377455963831
H          10.52941297747760    3.87215311721550    4.27627106590960
H          12.80504530076168    3.15498514426523    3.59295506287143
H          10.14137786230570    2.49477610092319   -1.78234192164280
H          10.13808100343598    0.72877988442892   -1.61016392384765
H          11.49899311973349    1.52325154922632   -2.42183742765422
H          13.94167800948208    1.29141694913616    1.48204445974257
H          15.15295339377582    2.94477987961390    0.08798371833166
H          15.39246681758462    5.18930654141058    4.10331878388627
H          13.84619952292740    6.06745545816309    3.99149611540167
H          15.30235251824491    6.72071700322252    3.20099781734700
H          13.13904116549936    7.47227167765872    1.80632634111197
H          11.76341212291016    6.10787066388723   -2.02293122951910
H          12.89031812265688    3.95965808205758   -1.69855519865223
H          11.78805066862442    8.88035684870620    0.56595220184552
H          10.97366890790857    8.04116998497022   -2.25356150615513
H           8.72724215068102   12.40392543909763   -2.97249360845357
H           9.94647163244342    8.79694843602341   -3.87503141653883
H           8.57292529617366   11.32073657162849   -4.91860541496758
H           8.86654275880274    9.74947632908494   -5.80011164405836
