77
 SCF done       -135.173483616724          0.000651465209
C          -2.03811122108586    3.40159685507482    2.27313536769820
O          -3.13776890441924    2.69162378784140    1.99002552655993
C          -3.10562817500133    2.41510524650054    0.67369741275939
C          -1.99380806307627    2.93807342836418    0.10054370968417
C          -1.27428214623338    3.59719948877343    1.14560772958480
C          -0.03257002430594    4.29939453644639    0.99321425705258
C           0.62379036506706    4.95113324106331    1.97613445758607
C           1.84566728940417    5.64725835382919    1.76648396978036
C           2.48680218088555    6.33896734481249    2.74068341491517
C           3.69258190528610    7.06474691998119    2.57064757045823
S           4.34334864880446    7.97079452828763    3.93207950481567
C           5.65565903576364    8.51871719132260    2.98044175336170
C           5.59226473385092    8.01793074682191    1.67742235705986
C           4.49291224719547    7.20325562091804    1.44346470300771
C           6.75874529822913    8.54168198003521    0.94242651282950
O           7.06060305144212    8.33551346764815   -0.20906479386319
C           7.48954160953489    9.39598396335792    1.95873231740794
C           6.79337961054196    9.34674372332306    3.14821972486931
C           8.67738016184863   10.11417721531778    1.72157601700246
C           9.34954018305485   10.11785695109447    0.53194620428174
C          10.54172858633656   10.81922753405404    0.27608762108290
S          11.29128069630810   10.65602652879459   -1.31000175953664
C          12.56985153793154   11.69258615321110   -0.84502268740163
C          12.41733454605326   12.14918301305069    0.47370958527728
C          11.28672129417635   11.66323734343577    1.10358735465375
C          13.57013957420077   13.02507407995429    0.76496605974279
O          13.82626819774515   13.63261561862869    1.77572768029396
C          14.39270363102915   13.00105985677516   -0.50323782368463
C          13.75073118526787   12.20156300625847   -1.42914777921980
C          15.60845010162384   13.70217973448992   -0.58159580883035
C          16.45788892385778   13.67049616611286   -1.65223019372108
C          17.69602613114205   14.33131637877443   -1.73049919822499
S          18.70579612916902   14.07048344229134   -3.15197251673282
C          19.92465638690186   15.08173410837485   -2.50799996996997
C          19.55975019643637   15.60697482527615   -1.26035404310333
C          18.31682737884211   15.19016581797015   -0.82062716955585
C          20.68155991688993   16.45757375503821   -0.80584079233134
O          20.77609221394457   17.10968604292663    0.20401877303496
C          21.71604183442239   16.33608030576593   -1.90151814650472
C          21.21576402339658   15.51719925186499   -2.89038013246700
C          22.96073153310390   16.98983335204980   -1.79287511962863
C          23.99016190454742   16.86983797206895   -2.67670751595596
C          25.23805702333459   17.51687169818115   -2.52848826895452
O          25.45522232969995   18.35461364109164   -1.48417438555832
C          26.71201140530447   18.80968314640661   -1.58735210090682
C          27.33933960338613   18.29279110827267   -2.67584219812563
C          26.39714140320159   17.43946023924677   -3.31545795959574
C          26.57323676079617   16.65348967786140   -4.49616221213592
C          27.71304647811791   16.57341201590799   -5.20966803169467
C          27.84938265518331   15.76353402412629   -6.38735688129727
C          28.97593177603123   15.67004784745426   -7.09385410968326
H          -1.90296812880254    3.70685423631103    3.29133190504928
H          -3.92083738194373    1.84706734145542    0.27148423780926
H          -1.70613500755828    2.87663639511083   -0.92882686401961
H           0.38435448491781    4.29458817113899   -0.00564918091251
H           0.21370208928618    4.96546240996125    2.97659201511464
H           2.25866862967086    5.61933645677035    0.76778632634773
H           2.05547468774479    6.36399512896598    3.73332092199336
H           4.27820814449689    6.72883968112206    0.50406018895108
H           7.06426649529836    9.85182984267551    4.05758581852556
H           9.06226474963872   10.68636118924771    2.55678411627092
H           8.95165533655875    9.53339040370437   -0.28519538367680
H          11.00202282347698   11.89921851559721    2.11233658872160
H          14.07855004621842   11.98863509446774   -2.42970748917166
H          15.86724302928823   14.27605223153831    0.29779371330889
H          16.18613468372206   13.07389808552942   -2.51259321227879
H          17.86670030638414   15.48253539197230    0.10991382060215
H          21.70743786724363   15.24149532050059   -3.80502385845549
H          23.08852753333472   17.61250665533631   -0.91716013661965
H          23.88404940542620   16.23790784102079   -3.54548961895234
H          27.04572195165810   19.49284892334518   -0.83071448802790
H          28.34387279263218   18.49297498010505   -2.98519608642024
H          25.71420204123859   16.08144041901180   -4.82180735391783
H          28.58713669831367   17.13065009901689   -4.90331607182885
H          26.97242445889668   15.20664258341768   -6.69260085068476
H          29.86362436604245   16.21186962190599   -6.81183151960443
H          29.04895475162234   15.05315070426443   -7.97232552427988
