91
 SCF done       -160.482416915636          0.000626938001
C           2.64682472644337    9.69146524914623  -12.25540240704840
O           2.24205251281151    9.58392338798472  -13.52573659748161
C           3.34046590495798    9.63743084060702  -14.30165227700218
C           4.45638252311629    9.77731385196095  -13.54507720955668
C           4.01781164306156    9.81591079107147  -12.18364036819942
C           4.85828317107748    9.96415259062250  -11.03581577238545
C           4.42377230085092   10.02350181460957   -9.75162257964815
C           5.27916110592854   10.20748308114313   -8.64530187298455
C           4.82776381573525   10.32563336744292   -7.35643075042993
C           5.64688376796410   10.58175671754409   -6.25669573776093
C           5.18065730994111   10.79123046166809   -4.97186485710640
C           5.92688317987971   11.16118582334420   -3.83854983233080
C           5.16894999886201   11.39303465282944   -2.71866086263185
C           3.79597794498440   11.19610299922846   -2.91568413063717
S           3.47856026059310   10.69372108158587   -4.55426934374052
C           2.75227583974333   11.41584812985682   -2.01075485326116
C           2.80922186814058   12.02372060793605   -0.75490621068496
C           1.57184689396868   12.20518348232187   -0.17433721014971
C           0.50898571294737   11.71911816323826   -0.93620966938000
S           1.10289123854301   11.01761801233405   -2.42097590873120
C          -0.86054329424340   11.81462282584132   -0.65357604189950
C          -1.84153387396466   11.19138613790397   -1.37437328385187
C          -3.21689542264499   11.41165388686724   -1.22252721177823
C          -4.25347641961389   10.72947325446999   -1.85763652015972
C          -5.50622781535758   11.24808508205128   -1.60240536319405
C          -5.48640808377903   12.37194153120782   -0.77633012911450
S          -3.85830386337543   12.72441909372225   -0.26299582719384
C          -6.54934146504117   13.23040961323356   -0.46067410227910
C          -7.88753048736065   13.11111110428219   -0.84380673663470
C          -8.64873802652232   14.21119355001882   -0.52330876317305
C          -7.93094119244427   15.23289406665625    0.11320693942053
S          -6.27725793175056   14.74117466887698    0.36780433006895
C          -8.40234214997684   16.51223823999238    0.39704586338097
C          -7.62914758778142   17.51329959493050    0.97104549797330
C          -7.99967824929822   18.87363990722762    1.04491776009740
O          -7.18751467714549   19.80730728902716    1.64706457009894
C          -5.98170636702676   19.37302487306210    2.09019155273987
C          -5.58298303884111   18.01125833536330    1.97037246041675
C          -4.34085926663080   17.77522550668572    2.46083830343697
S          -3.63861919312114   19.22067497851830    3.08283928614217
C          -5.03158395533383   20.14806140137566    2.67392872104532
O          -6.40559744625637   17.07575831547046    1.42510873332776
C          -9.15099339666039   19.39734205404405    0.45099461143014
C          -9.41781514636982   20.74833992981749    0.35640925282965
C         -10.52536938174177   21.21576269519069   -0.34931006141461
C         -10.79855985348989   22.54237529407462   -0.61813710613427
C         -11.89770212102826   23.04947549773807   -1.39542748131292
C         -12.93801410618422   22.33192008623223   -1.94300251148464
C         -13.12279207572624   20.94027295441671   -1.83918904798812
N         -13.35210690938827   19.81381282403391   -1.80464566894016
C         -13.98589207145626   22.90070690846342   -2.69168845644240
N         -14.87190693539754   23.28838454474118   -3.31299633480896
C         -11.72761769214996   24.49992750858814   -1.51252635843595
C         -10.57785803595143   24.87795464915814   -0.79808042936875
C          -9.95317118800926   23.68153969383363   -0.19888058658142
O          -8.94853966041713   23.66047564585520    0.48606318993595
C         -10.17052147152961   26.19508465923608   -0.74223943295346
C         -10.92161394727574   27.14773623145798   -1.41536762666141
C         -12.05990572974632   26.79328994562872   -2.13211935433046
C         -12.46706507439559   25.45885942025771   -2.17936447639548
C         -12.84468877524344   27.82602256620319   -2.87875339751975
H           1.88960524157162    9.66771937934241  -11.49758160799096
H           3.19549730208959    9.56628876606704  -15.36131927740643
H           5.46759418243133    9.84762687386599  -13.88932384787791
H           5.91861159166217   10.04417905471817  -11.23715536584229
H           3.36452775454054    9.94540550735549   -9.54770571831552
H           6.34183656576301   10.28486077578073   -8.83710188688898
H           3.76281433428034   10.24837725802903   -7.17246879265956
H           6.71466182255218   10.66543690077676   -6.41246519630317
H           6.99676362695818   11.26593670875449   -3.87745144886046
H           5.57295202098489   11.69542378149775   -1.76924891172299
H           3.73445703041863   12.34352816236903   -0.31064252838892
H           1.41767426522118   12.67731290441711    0.77987729814369
H          -1.14117839094344   12.44135926295566    0.18355034747831
H          -1.55228774324227   10.48677706155611   -2.14475511344595
H          -4.07067995623249    9.88165635408884   -2.49409466760975
H          -6.41545041043162   10.85508994557054   -2.01970891358271
H          -8.27006844098644   12.24518971681390   -1.35336328614213
H          -9.69413193998447   14.31247438469314   -0.75434080390242
H          -9.41591600965489   16.73094993555618    0.10835990637759
H          -3.81101864955766   16.84654776869471    2.49006782738460
H          -5.07428896910039   21.19636777210797    2.88179235142924
H          -9.84198242842852   18.70767408992444   -0.00774215185959
H          -8.73195278600318   21.45920339164321    0.79034094578705
H         -11.19869660512296   20.46746042106389   -0.74780157775956
H          -9.28511350775449   26.46501393550972   -0.18708066508424
H         -10.61835846273450   28.18443082343286   -1.38633777221749
H         -13.35087056979809   25.19953336659067   -2.73983284208224
H         -12.64053885531879   28.82436420716171   -2.50010236318070
H         -13.91138091083657   27.62670210102593   -2.80457677749938
H         -12.57554944186342   27.80014791750994   -3.93525747193911
