88
 SCF done       -149.623626611028          0.000698047156
C          -0.95730675496333    6.61008802349572   -8.75393623962242
O          -1.89043791213058    7.04990682120103   -9.60840477945975
C          -1.52224186348132    8.28667009175314   -9.98966024062044
C          -0.36148036155789    8.65289095862735   -9.39201617654999
C           0.02807450772363    7.55113107186308   -8.56740921165338
C           1.17566815024388    7.41388219265971   -7.71657122023986
C           2.12824366976426    8.35617891296726   -7.55808873542545
C           3.27770170571420    8.26625909890005   -6.71429838442571
C           3.61479541083859    7.20874091950124   -5.93622763108920
C           4.76465272709008    7.19262534619834   -5.09153457430024
C           5.12191536065988    6.13620425955066   -4.28613786733041
O           6.22001168652201    6.18524303747135   -3.43624161376833
C           6.94735674423999    7.33328870917426   -3.48101179162882
C           6.58861921190036    8.41868466259516   -4.33145155301113
C           7.44194636443803    9.46779835292548   -4.23440771187818
S           8.70102086721457    9.14769785108068   -3.09947277282729
C           8.06565927629254    7.58038175864286   -2.75576407383298
O           5.49536947499273    8.36910606279608   -5.13729982680376
C           4.43427630796486    4.89062402532130   -4.23392697671793
C           4.74844971534356    3.89744947939768   -3.36473561820590
C           4.10787072628164    2.63472843672389   -3.33553857139593
S           2.88653464649413    2.20437745994731   -4.49897031090199
C           2.69721973997232    0.61193788702647   -3.80664799980412
C           3.54273194718444    0.44664691034717   -2.71494311906330
C           4.33274314470306    1.58046996884736   -2.46173080891716
C           5.31945046185482    1.61658735384301   -1.33750301079081
C           5.82596014445645    0.19997226715669   -1.06193800643045
C           6.63480769246323   -0.39171718949787   -2.21146728500356
O           6.53935113281681   -1.55014396977947   -2.52883360921118
C           7.58890047002252    0.54888594346679   -2.90227909672928
C           4.62426621214812   -0.68171103831889   -0.72346117265077
C           3.66912886336872   -0.81163062620967   -1.91260263811632
C           1.72546322625004   -0.22226708592552   -4.42378537804032
C           1.33676217688217   -1.45972192020416   -4.03998347141631
C           0.32093263962087   -2.21546303518820   -4.71309016895126
C          -0.37592865781402   -3.22858307780980   -4.10897950328236
O          -1.20170414973117   -4.09437663443508   -4.81108017263324
C          -1.34451930400461   -3.80619174475368   -6.13411030069426
C          -0.69344136201160   -2.69088157274397   -6.74050487501856
C          -0.98413092290093   -2.56548308248113   -8.05838911689739
S          -2.05816801881247   -3.80861941481089   -8.58472201850381
C          -2.11359897813817   -4.50283363676261   -7.00614756176910
O           0.14279061600021   -1.87277142061909   -6.04213088916490
C          -0.34150273282783   -3.51768987139817   -2.70666577610231
C          -0.08059777190858   -2.59717799642117   -1.75013464176379
C           0.08362105869028   -2.85595803146453   -0.36328441620190
O          -0.13103260460670   -4.08505258829063    0.16237335242101
C           0.17981398808912   -4.02143782003118    1.46751154838650
C           0.61137066435226   -2.78104930544697    1.81356271615163
C           0.55534068228596   -1.99277930899281    0.62951698829905
C           0.94526696187014   -0.62598656401955    0.44330288792641
C           1.66023096671350    0.10671425677464    1.31589344483897
C           2.06758201447463    1.45952784971053    1.04709610764332
C           2.80482707328985    2.19305206569505    1.88007116296379
H          -1.08608391854851    5.62881259542331   -8.34147509595718
H          -2.16283070390294    8.79682405861256  -10.68159484529810
H           0.15424750862652    9.58205502479286   -9.51569947205788
H           1.23766283414463    6.47560292406474   -7.18349851208850
H           2.03041509607131    9.28142424752013   -8.10941796591004
H           3.92601345794515    9.13121272934243   -6.70079030546984
H           2.99314433217520    6.33052282118752   -5.92438608964141
H           7.40470816235951   10.39999036308508   -4.75751618629255
H           8.54933829153586    6.94172764839976   -2.04706843858446
H           3.63192384225483    4.73007139408620   -4.93513517093636
H           5.53467280651724    4.06563946884500   -2.64350628114996
H           4.82196061705321    1.98825137779418   -0.43513594585215
H           6.13923260422754    2.29788447446643   -1.56138417423190
H           6.50786315757232    0.22654891952704   -0.20203904150362
H           8.28123266495337   -0.02202213557858   -3.51583875328619
H           8.13988482001468    1.14735283086265   -2.18148085767287
H           7.02263635927270    1.21755601375504   -3.54878791811953
H           4.09686901358611   -0.24356401168071    0.12629536119211
H           4.96293496216060   -1.67795314239762   -0.43774768779761
H           2.69189218327490   -1.11427383633450   -1.53143043408247
H           4.03047946968742   -1.60132708364696   -2.57757587890013
H           1.22093061294313    0.22261576507404   -5.27218848727925
H           1.79092825309099   -1.95484293608638   -3.20041246082156
H          -0.63164656080520   -1.82371772350920   -8.74376774826203
H          -2.70314131900113   -5.37455167313667   -6.81474403682768
H          -0.59453009593216   -4.53131953192242   -2.43065760141467
H           0.03539120050742   -1.56195894326424   -2.03147510276966
H           0.05240600278433   -4.91786726300114    2.04209928951960
H           0.91644360740148   -2.45997545913068    2.78775002059998
H           0.65257531353668   -0.17043478989302   -0.49470187261992
H           1.97490515391461   -0.31945287377044    2.25859957597726
H           1.75340317627669    1.87304595363429    0.09667369668314
H           3.13644327610332    1.80542769956920    2.82926245650675
H           3.09926678221481    3.20125999382985    1.64469867452857
