57
 SCF done       -108.467862009178          0.000664024977
C          -0.12267546918693    6.50212806763899    6.77817784755769
O          -0.32874267896874    6.36041214921247    8.09519865719321
C           0.87992921116632    6.21162272756328    8.66747773057886
C           1.86583730459599    6.25595772695408    7.73768401895300
C           1.21820377693942    6.44879104655878    6.47722705242031
C           1.79804079540470    6.57169298046552    5.17152249758554
C           3.12195352872321    6.54347387374695    4.90477213566546
C           3.66319825094472    6.68170654192340    3.60000461068868
C           4.99818516097926    6.67351375628944    3.34374718229360
C           5.59545547107091    6.81939071965055    2.07735622585037
S           7.35003203016596    6.82157858065961    1.93135676168195
C           7.34517340866956    7.05178079167918    0.19389534817345
C           6.02104721672783    7.11611843073547   -0.24640761016111
C           5.06689235212610    6.98726099112994    0.80128914153612
N           3.85133489354236    7.07301717596938    0.20490580345275
N           3.96688074479239    7.24394122875534   -1.12446647272178
C           5.24202088156544    7.27383372649973   -1.41767076784311
C           8.53141487368154    7.15351698386041   -0.53027846937772
S           8.54850992009776    7.39580169435860   -2.27536591804380
C          10.30275934032901    7.44279723627667   -2.37826458445383
C          10.83939520340806    7.26798105844929   -1.09921622573502
C           9.85287672118095    7.10833575762634   -0.09183235803059
N          10.52232683815110    6.95149984448167    1.07425644320549
N          11.85148272669183    6.99819842650483    0.88004649814908
C          12.06715980648307    7.18541139679931   -0.39785897383315
C          10.95575758761843    7.64107561861315   -3.59249068048647
S          12.71081157815760    7.74943858922045   -3.69734468203948
C          12.71767833234573    8.00847710401760   -5.43248681790286
C          11.40416470032276    8.00050689874598   -5.90150806370312
C          10.44081021786510    7.79924665578856   -4.87688858024080
N           9.23102401834915    7.81915296213144   -5.48366808231488
N           9.35626422880129    8.01604633594763   -6.80764695714666
C          10.63025839916549    8.12738674799648   -7.08350937730999
C          13.91556347348758    8.19442031434711   -6.13544859052215
S          13.94881141562560    8.45960603778309   -7.87184647458845
C          15.66081544082557    8.59832846711293   -7.93279671936828
C          16.20986762104509    8.45000848890397   -6.68261764954441
C          15.22324330174286    8.22179959570224   -5.67239875284547
N          15.89783881232381    8.09708522637479   -4.50388123759899
N          17.22363256852567    8.22800086753661   -4.69335524182040
C          17.44015898977946    8.43610313707423   -5.96317750594792
H          -0.98409097789670    6.63406545114520    6.15323253964857
H           0.90490596897521    6.08399442407450    9.73166576001872
H           2.91640714656483    6.16216713056066    7.91627520472218
H           1.09311743772851    6.70158631467217    4.35945307032123
H           3.82806487130689    6.41504688880559    5.71345457657541
H           2.95887518247114    6.80524310454773    2.78857782134239
H           5.68365016158943    6.55149681447293    4.17257119885322
H           2.93631045189351    7.02198943055716    0.61794666553021
H           5.56798444201569    7.40323036015624   -2.42945013107341
H          10.15039810647010    6.81189991370571    1.99859956698428
H          13.06510697149446    7.25381669229757   -0.77979265317174
H           8.31944796472889    7.70846358092296   -5.07269638219579
H          10.96181446988941    8.28952963607477   -8.08854549968022
H          16.14402004186277    8.77788366548917   -8.87096755953833
H          15.53393587993635    7.93123475454242   -3.58097738104708
H          18.43538888567410    8.56906587686669   -6.33490795872428
