83
 SCF done       -158.414609043378          0.000691959926
C          -6.91516507107933   -0.58520237275426   -5.23295389870994
O          -7.58409858843297   -1.39784172168105   -4.41334676199699
C          -6.69125620482764   -1.91344576258994   -3.54759408146799
C          -5.44565533889168   -1.44087935184122   -3.79847493042086
C          -5.57447167836990   -0.55629834428505   -4.91567348383282
C          -4.56732340777509    0.21024603337826   -5.58386830386719
C          -3.25873477049962    0.23298882777564   -5.24633239549277
C          -2.29704959942711    1.01951895903298   -5.93148636815664
C          -0.98500175502546    1.06962556912716   -5.58597317426007
C          -0.01263146728748    1.86119949621080   -6.24256742133162
S          -0.44258644071202    2.84454385138850   -7.60701453980399
C           1.18476551679358    3.42332050855689   -7.71490489523386
N           1.50259720201839    4.33601805198108   -8.73125656970537
O           2.65062967233539    4.73446899352512   -8.79202357288746
O           0.59797451232121    4.66520680733792   -9.47830405599435
C           2.01312537920903    2.89997360278231   -6.76004730589828
C           1.35051017820648    1.99669229977405   -5.90491931377651
C           1.97062349564677    1.29115496207845   -4.82669447669820
C           3.21781491095079    1.51612937304780   -4.35186570195995
C           3.78882963126678    0.78198904858911   -3.27958020225261
S           2.94096731522364   -0.56928800360431   -2.58904325349689
C           4.22961680912822   -0.81413784671276   -1.46466701377778
N           4.11942029498384   -1.86578564991811   -0.54379103175235
O           5.03745253895768   -2.03038855914939    0.23781478122390
O           3.10507051640240   -2.53936573675256   -0.59552687483145
C           5.25048662617997    0.08651385478125   -1.60372191046246
C           5.02004047175844    1.01419837672506   -2.63983243272826
C           5.91388444358085    2.08040907832121   -2.98728704155257
C           7.02447517132772    2.41633861903112   -2.29812680488154
C           7.88608410543919    3.49405567246703   -2.64248762843998
S           7.60607712922744    4.48331990366494   -4.06828978727798
C           8.98594514652066    5.44675012820226   -3.69859703199243
C           9.61640799205159    5.00804991326949   -2.52777439462812
C           8.99676014561762    3.90680820840162   -1.93656847970980
S          11.01184236882889    5.96270242859190   -2.11248110005324
C          10.74440416756850    6.95438158860606   -3.51994210638832
C          11.40385101536669    8.05629496471318   -4.05468703710106
C          10.80304417216196    8.50837691056029   -5.21694799151148
S           9.39421038672866    7.54892748561403   -5.64995383335060
C           9.62617563682554    6.55163912963747   -4.26667316282731
C          11.22357289997925    9.60101821274798   -6.00884869349413
C          10.61759491678067   10.00359625096806   -7.15741948691593
C          11.09598925245700   11.10133905208058   -7.90526208069428
C          10.55161520879980   11.54631970139327   -9.07667436954317
C          11.01382825857993   12.65855797785757   -9.88460867557316
C          12.03674323636011   13.52360350094113   -9.59376563174401
C          12.83670989518893   13.49292327108049   -8.43240538321967
N          13.53092037496830   13.54525239383516   -7.51856067457924
C          12.43353615865859   14.59315981194435  -10.42403356261230
N          12.81085425237362   15.48016793678061  -11.04792134571409
C          10.17300955227248   12.71465643747513  -11.07908617103134
C           9.20165997637722   11.70143201131559  -11.00140349812309
C           9.38025241413073   10.93241064410486   -9.75806899971630
O           8.70902776882526    9.99414460883830   -9.38293886194490
C           8.26341920308551   11.52925221714732  -12.00140380680633
C           8.30239711532764   12.37990063542467  -13.09375932492218
C           9.26112367408891   13.38733168192627  -13.19335138551306
C          10.20158948263361   13.55595396021979  -12.17880028885189
C           9.29639558912275   14.27231127280939  -14.39858313394304
H          -7.47096006080272   -0.07890210599628   -5.99758939561017
H          -7.06257455677494   -2.59609857353759   -2.80939770658688
H          -4.55060683211351   -1.68421251171196   -3.26586361404367
H          -4.91080866688983    0.81075412395181   -6.41633355680129
H          -2.90715196745033   -0.36252788796256   -4.41540893112912
H          -2.64570664266677    1.61333243258769   -6.76747813864324
H          -0.65052639000439    0.47775558337736   -4.74552690328626
H           3.05477014146224    3.15768962239936   -6.70694632193128
H           1.38199246902230    0.51939966088704   -4.35052487793043
H           3.82459205502288    2.29923312944907   -4.77972222681274
H           6.12361318757586    0.05655270353358   -0.97870719425894
H           5.66365491342840    2.66681714974445   -3.86002804818745
H           7.31053482343074    1.87325635245053   -1.40869978577194
H           9.33549359743975    3.43229015508340   -1.03422917769708
H          12.27783026058940    8.51136779018056   -3.62645380212152
H          12.09610780168087   10.13439914673078   -5.65022307708413
H           9.74781947916552    9.47560621768045   -7.52228424410818
H          11.96614677288350   11.60841626326885   -7.50773802958801
H           7.52451077716013   10.74703407581393  -11.91986386540776
H           7.57897438527497   12.26452496057473  -13.88766758421620
H          10.93793712689563   14.33835155677069  -12.26741201335807
H           9.82058852539960   13.76666308769862  -15.21025475924064
H           9.81984021659633   15.20061318700625  -14.18552777548046
H           8.29006709151954   14.49969278665369  -14.74289796271601
