62
 SCF done       -111.875444165351          0.000649602537
C           0.00209035830303    3.32521369008494    5.39960131500475
O          -1.06482805033745    2.89387394990497    6.08752755083606
C          -2.14608946182117    3.49871141043068    5.56333282409164
C          -1.79108581005458    4.31775599237007    4.54283818724490
C          -0.37027991501176    4.21569821597605    4.41959357033859
C           0.43848786774833    4.90805491777111    3.45841809631493
C           1.77964577826726    4.79660020653737    3.34107745847129
C           2.53941606502509    5.48124425986745    2.35746484595399
C           3.88384529355095    5.33465796947336    2.21819471486325
C           4.68152704192816    5.95440170971956    1.23784183930250
S           6.39743077065840    5.57362932412026    1.13358961918784
C           6.67966266966393    6.58696259083132   -0.26813259843198
C           5.48087489620914    7.21216790275215   -0.61873733644920
C           4.38759870532258    6.85515712953556    0.21891515502051
N           3.31895461807202    7.54157389564796   -0.25790429414372
N           3.65392615360191    8.29746286625842   -1.31920167755275
C           4.92863602686109    8.11860596599871   -1.55527506468266
C           7.93043863143382    6.65608386625080   -0.87929455097200
S           8.20648889685221    7.60152964353759   -2.33968177879951
C           9.88957934772922    7.11815819081902   -2.48560472156106
C          10.21529902564317    6.27289851131571   -1.42131121580411
C           9.12676207629316    6.02593451946440   -0.54473537659497
N           9.59465007269717    5.19757751948823    0.41839092702685
N          10.89168979738959    4.90582008705619    0.21821022157464
C          11.28444346216047    5.52851291201175   -0.86438873990141
C          10.68175781962364    7.54539927556820   -3.54987851957192
S          12.34325345368554    6.99895499461104   -3.74549292761293
C          12.59762233697107    7.88422510987921   -5.22765228636367
C          11.43255058541345    8.58506527760656   -5.54728297758690
C          10.37837737840836    8.38730385100665   -4.61598895447408
N           9.32985108221454    9.11496564555425   -5.06758255557460
N           9.64093180525255    9.75431235442284   -6.20924729113961
C          10.87784452125043    9.45912456602591   -6.51663542794484
C          13.80171721258507    7.87347040207325   -5.96311397835933
O          13.86076765351097    8.67090810028294   -7.06275772613994
C          15.07760418272150    8.50754896765700   -7.60900939083572
C          15.82211563549736    7.62273949674128   -6.90031698345695
C          15.01287875576507    7.18543779876765   -5.81202553588310
C          15.33628611017845    6.23572873902975   -4.79599389763472
C          16.52345300392333    5.61175567413511   -4.67001055424713
C          16.85187001828073    4.63818101199605   -3.65721996868850
C          16.02136253405801    4.13111210574400   -2.74626325035824
H           0.95780578271544    2.93779696114959    5.68994153390112
H          -3.09750950840249    3.26489060277443    5.99821742444565
H          -2.43952994424847    4.92251084104061    3.94313620852718
H          -0.09918258917791    5.55930503689461    2.78126024099827
H           2.32145220565958    4.14716694328462    4.01459661338022
H           1.99669892696971    6.13058100042525    1.68469732040358
H           4.40548044828766    4.67198459510969    2.89662664502866
H           2.37261041309052    7.55854341743156    0.08044077829591
H           5.41236522320780    8.62815705001054   -2.36335482695877
H           9.10463939669364    4.81076954750695    1.20730374057038
H          12.29334195522256    5.44039978186399   -1.21157639201186
H           8.41308251659403    9.21498473037757   -4.66568859464492
H          11.33882527112876    9.86118145486133   -7.39478624043151
H          15.29041397052845    9.07304452881442   -8.49486983671615
H          16.82201941775077    7.31309015919741   -7.12144224376597
H          14.54876381064259    6.01838985440141   -4.09031270499528
H          17.31649387447334    5.84501813923750   -5.36740232934701
H          17.88033845278466    4.29856808868187   -3.66645706654283
H          14.98454756290770    4.41373258810073   -2.68711057150803
H          16.35574440567522    3.40452406073210   -2.02656644302009
