77
 SCF done       -150.359754770401          0.001002524313
C           0.18372865251285    2.48883642520667   -1.51931783224517
O          -0.40617863893468    1.28873290674559   -1.45651059467271
C           0.53936466737148    0.36315133074159   -1.71946360009022
C           1.73714564498791    0.95023308598407   -1.95640001092745
C           1.52162344894050    2.35991019510272   -1.82686471729165
C           2.44309356078307    3.44288329923303   -1.96367676089367
C           3.74914802895667    3.31672045623485   -2.31274637503191
C           4.66892792181527    4.38605204442688   -2.45447677163564
C           4.38452850068012    5.70385399882033   -2.21432073766523
C           5.27548385599196    6.76589854095036   -2.37902805376151
C           4.90901544750199    8.07687056061689   -2.13784686973850
C           5.67190511166485    9.25132934773516   -2.29164811064154
C           4.99182872563077   10.40275760641435   -1.99093712989321
C           3.66698366282687   10.18139916597238   -1.58105834239024
S           3.29546795282763    8.48123205721801   -1.58119575173367
C           2.68218350170852   11.09561951871635   -1.20817860268031
C           2.71681990693215   12.49613785271039   -1.17833634852982
C           1.53359967950179   13.05912548965786   -0.77273605045455
C           0.52673864271381   12.12593373556775   -0.45855380292863
S           1.12371953114770   10.50367676521469   -0.69742844237558
C          -0.75430575558720   12.44762685624559   -0.03139126248684
C          -1.78650992538374   11.59489418052182    0.33027863564108
S          -3.34522754212789   12.26512707848562    0.80967505532294
C          -4.09822092642596   10.70126832332518    1.16357286999562
C          -3.14007819335520    9.68746230360141    0.89034522560099
C          -1.89823672019561   10.20296875807908    0.44098770558149
O          -1.01569538713869    9.21550477394497    0.22436207431095
C          -1.66729922827845    8.06348635530983    0.53199946985390
N          -0.96179062597283    6.85539831306391    0.43084166741547
O          -1.52024261921973    5.85268010623855    0.85553147322540
O           0.15635853415256    6.87266807200206   -0.04877779968214
C          -2.96323741118260    8.28782112095877    0.93891226148912
C          -5.38850157949122   10.74614747726562    1.64435794563565
C          -6.25512496275188    9.72834995353620    2.03765249906888
C          -7.53798434411902    9.92294252336740    2.57582545383341
C          -8.19208878149499    8.76286300631221    2.91859081222480
C          -7.44835078543384    7.60874034273507    2.65043431896497
S          -5.90500815533319    8.02681796844809    1.95429089053121
C          -7.74098920521979    6.26055478470949    2.85584295965132
C          -8.85504531054160    5.64783145813487    3.44829905926910
C          -8.76583332599669    4.28180858369169    3.49342326721525
C          -7.58397621292239    3.75780629946798    2.92056117948099
S          -6.58346503217338    5.06636973324484    2.33363695834079
C          -7.23325060585099    2.42710138649369    2.84861907343339
C          -6.09867599304253    1.88232938569436    2.22509148551792
S          -5.72806183220529    0.17190628500321    2.43696980438937
C          -4.33001579149013    0.21172118390693    1.43532508600399
C          -4.13501152694603    1.47931917191960    0.94100026658618
C          -5.12292690787600    2.40999378065305    1.38962240352299
O          -4.90920739956325    3.62166159308265    0.83761664548903
C          -3.80532026845088    3.48447423030345    0.05678422494785
N          -3.39069489597329    4.61638242123196   -0.67643157216413
O          -2.45641711838010    4.45997451884225   -1.44191008563286
O          -4.00401164858806    5.65315774170999   -0.52867702127425
C          -3.28564715764946    2.21747776553999    0.07037686705977
H          -0.42614614947711    3.35740421565818   -1.35710165952936
H           0.23364013083549   -0.66454230236022   -1.70775539505626
H           2.65652433682827    0.45420358560718   -2.19013939081843
H           2.01912523656323    4.41665810908609   -1.76698225320546
H           4.13549319750538    2.32605552087468   -2.51304917962067
H           5.66971050130307    4.13011916617785   -2.78002520148957
H           3.39253398510921    5.96685330265826   -1.87259040191893
H           6.28437220994182    6.57205701707087   -2.71916706479467
H           6.69539787056355    9.22170154290898   -2.62243989514326
H           5.41447197992488   11.38980336398940   -2.05375974576850
H           3.59052701277217   13.05834251016864   -1.45576940485518
H           1.36448553709613   14.11856923972995   -0.69132856287153
H          -0.97973373762053   13.50473929252136    0.02918315130803
H          -3.65235486046207    7.51153490078955    1.19115166544260
H          -5.79690352001337   11.74500509935868    1.74874862565617
H          -7.95157250594228   10.90755426300849    2.70699159601904
H          -9.17825859701368    8.72781999889532    3.34597665314083
H          -9.68611991657648    6.21392060584875    3.83033657488940
H          -9.51747077624568    3.63858598814547    3.91582916044616
H          -7.89243202902718    1.71881561321866    3.33199591443157
H          -3.75919838827322   -0.67786401308834    1.27280369972734
H          -2.43032468117122    1.87009075871339   -0.47051387925572
