95
 SCF done       -161.705624075807          0.000532126049
C         -12.24678617270940   20.72064065752746    3.26050448880135
O         -13.28194713806862   19.90088014111718    3.48464997341791
C         -12.83563283451548   18.64449417382946    3.29949302546976
C         -11.52375298738946   18.64075166981920    2.95792621185260
C         -11.11489388047194   20.01166221183300    2.92714329075722
C          -9.82849628878268   20.56381714504629    2.62719977527128
C          -8.72795120585371   19.84186830609899    2.30796584382171
C          -7.46728114979143   20.41902448410535    2.03125090064896
C          -6.35173023402435   19.69043152339491    1.72736793689106
C          -5.09400279820778   20.25226752667990    1.47867783270106
C          -3.95526021092277   19.53089694404614    1.19819879933372
C          -2.65787795905756   20.04119131125245    0.97565528435785
C          -1.70995359184995   19.08499341240987    0.74590441616129
C          -2.20996028994514   17.76923097582216    0.76671881476456
S          -3.92766243161720   17.77685107012377    1.08669828422295
C          -1.50381936158640   16.58873637903292    0.57787254571388
C          -0.12148571970649   16.43545956817490    0.36831109170329
C           0.27408948566378   15.13382021206632    0.23415799826923
C          -0.77638997390225   14.19868229409871    0.32217483639373
S          -2.29528604432477   15.02756523469543    0.58979548709129
C          -0.65122882217642   12.82770495867800    0.21472253691646
C          -1.66674536538166   11.88229430547849    0.26110101225071
S          -3.38386666125895   12.21262413617467    0.44790659190016
C          -3.87665421226775   10.51123914922442    0.35249683082221
C          -2.71055779074954    9.71908248542853    0.19626641510261
C          -1.52864343438498   10.49898501977693    0.14858208520916
O          -0.43749880600427    9.73280057243251   -0.00938986015090
C          -0.90361418633588    8.45380707311587   -0.06437865851037
N           0.03067785535660    7.42977865268780   -0.22427481663770
O          -0.40498600987432    6.28182811014256   -0.26678527992663
O           1.21007485967652    7.72285869786567   -0.30650139484664
C          -2.27758494639675    8.38663488197299    0.05535813855454
C          -5.23300812545405   10.27626133738167    0.41848767096361
C          -5.98838714644750    9.10884346253682    0.36882672192113
C          -7.39398556817203    9.09624050248794    0.39692452860979
C          -7.95312229000024    7.84681485467572    0.32315650374650
C          -7.01241205833002    6.81127771356269    0.24096813080399
S          -5.39133330927847    7.47322561681261    0.25875586660364
C          -7.23841625773208    5.44250553363709    0.14160911121483
C          -8.48177950149675    4.78584923191564    0.07621673836539
C          -8.36187706643346    3.43295521952346   -0.03228717764535
C          -7.02409049756567    2.95395371738838   -0.05271728030802
S          -5.91651475019145    4.29412742644837    0.10842882928985
C          -6.72073396563065    1.62796236622120   -0.23657998296446
C          -5.49175530927322    0.93041498970613   -0.35116378634876
C          -5.53828732137313   -0.42072292248828   -0.71771185523348
C          -4.40487831463654   -1.19435857732939   -0.87808573201417
C          -3.13169344957720   -0.67898266043811   -0.67482742998710
C          -3.03621725198831    0.68451226380795   -0.27506371471993
C          -4.19755255438722    1.48290669032114   -0.10744503533778
N          -4.06607374586162    2.74710165238288    0.32317325668650
C          -2.87795347904081    3.24456844156054    0.56957021922397
C          -2.80792696409783    4.62871233012996    1.13192142448713
C          -2.97115965560510    4.58867100455377    2.65306410264715
C          -1.71165463694759    2.45460281718036    0.34742355314580
C          -0.33615578652192    3.00206719125369    0.56771881964659
C           0.75596225038428    2.00030899390329    0.21843170309842
N          -1.81900741997798    1.21545471840305   -0.05540133825609
C          -1.90902012081876   -1.43623832623014   -0.83960516102764
C          -1.81190684820481   -2.71641793113773   -1.19155316954572
H         -12.41683537817894   21.77424567172271    3.36318256689290
H         -13.54105624994001   17.84943232456902    3.43967698302197
H         -10.91903737737241   17.78216795000973    2.75367081178977
H          -9.76029088372518   21.64324015043579    2.67106136661295
H          -8.79239383654496   18.76327205347070    2.26320356827867
H          -7.39188841366706   21.49835335497250    2.07463377759894
H          -6.42716064913513   18.61069150202172    1.68299422432754
H          -4.99549545923620   21.32956755482880    1.52026442282444
H          -2.46057828165218   21.09863293180824    0.99661498143838
H          -0.67221203991421   19.29680323849936    0.56072297125711
H           0.54759465368490   17.27587131518661    0.32722595195489
H           1.29046500712249   14.82122748642288    0.07201725404322
H           0.34594042365296   12.43207326351781    0.07023375065913
H          -2.84988108329184    7.48401321402140    0.03732237463747
H          -5.83093773364600   11.17578200611178    0.51636567570128
H          -7.96164206174101   10.00765944719160    0.46357616779168
H          -9.01172555186300    7.65987894648537    0.32783324756930
H          -9.42139541126364    5.30937897202905    0.09880505586731
H          -9.19568981897129    2.75642759228208   -0.10852860939280
H          -7.59448811556047    0.99356077396617   -0.35178170957403
H          -6.50540426248865   -0.87087280842521   -0.89420728901106
H          -4.52042372949856   -2.22616241583377   -1.17251186670310
H          -3.62204601518156    5.21573342122562    0.70955859325387
H          -1.86102963766326    5.09345980514744    0.86553748495044
H          -3.93182891120423    4.15003705220276    2.91303358214291
H          -2.92642373929935    5.59609467013297    3.05869645042549
H          -2.18425353887462    3.99463772922185    3.11305137672155
H          -0.24298598481700    3.30120010209972    1.61548729458075
H          -0.21915789489243    3.90820510294286   -0.03252582014336
H           0.66691039713780    1.10935192677959    0.83491648011291
H           1.73418100584351    2.44575499119624    0.37980777053715
H           0.67319073459874    1.70295424910504   -0.82330571625796
H          -1.01406654281162   -0.86121300832673   -0.64589030274962
H          -2.66859041557247   -3.33651411287919   -1.39576817572284
H          -0.85254375232311   -3.19493739657309   -1.28717065104110
