83
 SCF done       -168.192718995670          0.000501991401
C          10.17040239916491    0.06678780768740   -5.53822116023865
O          10.37639968076191   -0.11382312716624   -6.84579660521118
C          10.75585696847216    1.07292687597979   -7.35475123500916
C          10.79883388017759    2.02270812061110   -6.38802256002585
C          10.41235787509291    1.37219181125181   -5.17412796282448
C          10.28499905076253    1.91289441468606   -3.85226484448055
C          10.52267941280263    3.19996027894334   -3.52466591740131
C          10.39168255530301    3.77087735090302   -2.22162024872185
C          10.03516952979984    3.12019736188265   -1.08924313672021
C           9.90426072048129    3.76994650158498    0.16915493700966
O          10.13278957839318    5.08654191621121    0.31005292826466
C           9.90956604456656    5.42988383982149    1.60481124114708
C           9.53193092984899    4.30787808691277    2.32127619949118
C           9.53007502271931    3.24534984498080    1.40579305638188
C           9.19111048296469    1.82765064857338    1.68395631363406
F           8.13759417214305    1.39429201577871    0.96120833715409
F          10.20086101086279    0.98422478348247    1.38509074043163
F           8.88513646546780    1.61528349391897    2.96817441608025
C          10.07732848620651    6.79014444646032    1.97807836406083
C           9.82640958745053    7.28557208849622    3.21197842183481
C           9.97851619394599    8.65945685050630    3.54227185414120
O          10.44973718369688    9.55195915920359    2.65367520246551
C          10.45259628672241   10.77973415343290    3.23178762856075
C           9.97453639767601   10.68011817255566    4.52887390835930
C           9.67723785280667    9.32551517641523    4.72945566290680
C           9.13858997368796    8.69940342288550    5.96403868406424
F           9.94236746915072    7.72743443970000    6.44043415826940
F           8.97407683427940    9.58018262439256    6.95529009708066
F           7.94156826085346    8.11249257920040    5.76483101326598
C          10.92434955481937   11.88059353101885    2.47001103113822
C          10.86764127043461   13.17417982008960    2.87521292585067
C          11.37746418478520   14.24940361832678    2.09069296955610
C          11.21796642051213   15.58928188327295    2.40170990054093
O          11.75487662043530   16.59302538874034    1.62618547308869
C          12.44021816605852   16.19250596699590    0.52081719685967
C          12.58429092839989   14.81617982545113    0.18809158408982
C          13.29419380037939   14.61940650730280   -0.95077435408560
S          13.79922982662478   16.11845661350566   -1.63430394158019
C          13.04363588270050   17.01620248514665   -0.37111790537751
O          12.05171017686722   13.83109003037361    0.96763868093557
C          10.46906067141459   16.06880036767418    3.50691729074494
C          10.26911043170424   17.39495158693172    3.75920794288853
C           9.47706833764954   17.81588476442683    4.84598346586658
C           9.18587482832241   19.11654021635309    5.15589584870519
C           8.35294020222675   19.58016589318765    6.24701106098960
C           7.71856870710173   18.81195480718644    7.19014853871357
C           7.76633248424949   17.40513222704987    7.27497549391605
N           7.75209564603846   16.26481524969750    7.41563121874823
C           6.91467616717945   19.33031197772333    8.22699260810885
N           6.24760581108911   19.67996248014674    9.09392687205600
C           8.29841445555117   21.03945925108492    6.17111935717969
C           9.07656108483694   21.46848919799415    5.08155711853060
C           9.66714206485593   20.30285404833023    4.40050990975523
O          10.39182284653495   20.32260124488152    3.42720224710868
C           9.20284344928492   22.81007313847662    4.77621831637547
C           8.54170220749679   23.73234512912811    5.57122377705136
C           7.76507728435727   23.32787215548800    6.65538133275239
C           7.64295906698982   21.97206195518644    6.95659049056944
C           7.04115425267811   24.34078329717838    7.48418698657999
H           9.85805664098867   -0.78113232316475   -4.96096679041182
H          10.96434057062852    1.11096680617696   -8.40556143346023
H          11.06800845741134    3.05026433230151   -6.51469386052215
H           9.96991760334101    1.20649995627108   -3.09749340457545
H          10.83412665777931    3.88284415737103   -4.30295406819148
H          10.59596007086368    4.83072270856826   -2.14353123493164
H           9.82284504053417    2.06278021441359   -1.08948803463781
H           9.29090447058585    4.25138193136008    3.36220635374824
H          10.41533184720011    7.45308277195550    1.19425004806395
H           9.47493689075693    6.64426618420972    4.00459402924648
H           9.85923742492134   11.46727237570500    5.24433962526290
H          11.33693828826567   11.63727604977804    1.50200370192002
H          10.42485277308195   13.41246394950220    3.82628620862485
H          13.54702821916256   13.69192714394456   -1.42004968159596
H          13.08588100637000   18.08493112836801   -0.35629081782735
H          10.01758395291089   15.34136721674145    4.16288886698691
H          10.70527118283550   18.14178591725874    3.11387577391434
H           9.06310734143235   17.03195691192766    5.46731899756266
H           9.80571284570613   23.11885534674852    3.93601806576384
H           8.62688433537604   24.78650167244134    5.35081190435599
H           7.03900801045721   21.67256047353118    7.79783421601619
H           7.59733402042087   25.27387311209344    7.53363784830353
H           6.87335082803175   23.96986632402051    8.49206966832339
H           6.06879438292667   24.55277584080358    7.03814108637951
