77
 SCF done       -122.402217504055          0.000307602474
C           0.30860137288165    0.74368501645292    4.27187000248696
O          -0.43623078309074    0.10145294142759    5.18291051290621
C          -0.68647227719810    0.97288654113823    6.17681545210926
C          -0.11102987489755    2.17332011715833    5.91898119143906
C           0.55279194943282    2.03984546900188    4.66000832495656
C           1.30591489579563    3.06743089816963    3.99695794766525
C           1.91753463696831    2.94179371463091    2.80249695486396
C           2.67710382673895    3.98629271140887    2.20225875941801
C           3.31817077848612    3.86619325346551    1.01703366905935
C           4.11514961952477    4.89242448471178    0.43809603620035
O           4.25080970874700    6.08194708167383    1.07625977056929
C           5.08682023396810    6.83823518378619    0.34541123626698
C           5.51328215168404    6.17513305107914   -0.75807035062206
C           4.88646238502855    4.89459241138013   -0.72665971467932
C           5.00896583337136    3.83525114799750   -1.67976030880559
C           5.95797334431849    3.78637047402869   -2.63833637251311
C           6.11221927092557    2.75351827940005   -3.61745734778454
C           5.15436586321920    1.88599350688171   -4.00765298193818
C           5.34768901241947    0.85386032234740   -4.98598822782621
C           6.61834405431564    0.36428209543495   -5.38113897785540
C           6.55917781809165   -0.62260614158331   -6.31729448418958
S           7.93832463292088   -1.44849753605275   -6.99941440993875
C           7.12702980300732   -2.62267711249155   -8.11994732928027
S           4.92239884085698   -0.98651180737874   -6.77074148675037
C           4.30542590346089    0.21422342732736   -5.65803338728604
C           2.91504881153260    0.45813287167565   -5.57961110658253
C           1.98760225737361   -0.14911395853066   -6.36184289354615
C           0.59600990541005    0.11095017928225   -6.30565326208707
O           0.09579132682165    0.97369599833781   -5.38528985366959
C          -1.23355123920321    1.04128322046189   -5.58029162056063
C          -1.62330184151334    0.24840988725787   -6.60869274783964
C          -0.44265616309044   -0.37871136916279   -7.10631579833575
C          -0.31566066742186   -1.29557353347196   -8.19036102990815
C          -1.31928047341810   -1.68052709156208   -9.01215335536538
C          -1.13233865640530   -2.58789993772426  -10.08865832291347
C          -2.11254493141276   -2.94905691898658  -10.95094040194661
C          -1.92643541395125   -3.85107405174948  -12.03371206464975
O          -0.71564145625508   -4.43288740584936  -12.22687582419389
C          -0.81828218910872   -5.22705234657492  -13.30576597520064
C          -2.06755603278112   -5.18352619293048  -13.83245126179129
C          -2.81776094227854   -4.28687152146458  -13.01723987523010
C          -4.18711265799275   -3.89667300891287  -13.16404078992885
C          -5.01464583512237   -4.32566557791913  -14.13445919569332
C          -6.38305293028877   -3.90312821739372  -14.24774763495257
C          -7.21156058344098   -4.32099158119297  -15.20380802185919
H           0.60374646987568    0.18803091506237    3.40462711991593
H          -1.27719447317120    0.62152348792641    6.99949920926757
H          -0.14335270887782    3.05126542596573    6.53101428777440
H           1.37472958731169    4.00815611523945    4.52784349537453
H           1.85188465207142    2.00771622297322    2.26106350597666
H           2.75106626434127    4.92025744078140    2.74296838212824
H           3.25963692371188    2.94098419322111    0.46186262152067
H           5.29710759101000    7.82388936789630    0.71212549480071
H           6.17408434107856    6.55121407332502   -1.51125018010804
H           4.30145327972130    3.02350531728838   -1.58535368366542
H           6.70528854345802    4.56822493417417   -2.66558973729752
H           7.07802943592668    2.71632812825366   -4.10351702188662
H           4.16079524359744    1.97672636793976   -3.59304455364944
H           7.55019780206711    0.70574213708023   -4.97040714966245
H           7.92067878188236   -3.19190972393174   -8.59259112807544
H           6.55688660877604   -2.07753023416920   -8.86675922008061
H           6.47875898787765   -3.28093962126692   -7.54880784132436
H           2.58516639203634    1.19386203018554   -4.86025617823649
H           2.30486930572128   -0.87209191698926   -7.09998352906331
H          -1.78708507653420    1.68517472079306   -4.92509178584913
H          -2.62285809132964    0.11781970533910   -6.96787058101217
H           0.67405479857438   -1.69751107882219   -8.36314229998537
H          -2.31533610567259   -1.28405514811245   -8.87078793358762
H          -0.14251024882777   -3.00309138114433  -10.22337917161049
H          -3.10615223445766   -2.53969862430459  -10.83880586310240
H           0.06103694463687   -5.76788608365397  -13.59645246364058
H          -2.41486123486069   -5.71981497504163  -14.69086015405549
H          -4.56434569505276   -3.19847048386226  -12.42789975319845
H          -4.66237202929857   -5.02219470925764  -14.88231684362669
H          -6.73265878402146   -3.20347729718964  -13.49870087596453
H          -6.89110702685824   -5.01644781036785  -15.96200291543531
H          -8.23219153329642   -3.98506047043206  -15.26228669486568
