63
 SCF done       -124.158121838916          0.000672650534
C          -5.68825763829982    2.41219961884874    2.62248917518548
O          -6.92562957757120    2.01581666281837    2.94931431512396
C          -7.29860118291689    1.09082031837171    2.04684888696515
C          -6.31399440870813    0.88356133628994    1.13753923659151
C          -5.23912903301350    1.75129413811871    1.50390010723524
C          -3.98387502202883    1.87172142373704    0.81396635687034
C          -2.97901032132843    2.69482474502197    1.16541838660135
C          -1.75168599354280    2.79280419135577    0.43978765823976
C          -0.75967463184118    3.63335900502520    0.79108853216133
C           0.48975106335124    3.79587709414278    0.09417807181237
C           0.88965672794957    3.09611435027447   -1.01364680968610
S           2.43207733287883    3.57256448927862   -1.59496393518517
C           2.57432276319394    4.74625149245534   -0.36695910408424
C           1.48870115092297    4.76540657376140    0.46504773833142
C           1.41430861808843    5.65901209555150    1.61816059430517
O           0.69173159339713    5.55763844453253    2.57527770580822
O           2.28953815628650    6.70351847018371    1.47591096610601
C           2.51015394074105    7.47155168635265    2.58542914264824
C           2.29861345742909    8.81296885704667    2.63362375756554
S           2.70327391190837    9.46298582216332    4.17240541929258
C           3.14002826938418    7.93155592364346    4.77085417456422
C           3.00115608599165    6.94711576669633    3.82553151946220
C           3.34294354575782    5.54273071701703    4.01738529516424
O           3.41080557615758    4.70064969859642    3.15519472595549
O           3.62064017305363    5.30202679986667    5.33115892540079
C           3.97290826874013    4.09739118327902    5.79487063301040
C           4.36383550495439    3.81452589115889    7.07812140010429
C           4.64801073026978    2.40388012680102    7.16248083882716
C           4.40363652742371    1.84083303506373    5.84683666229194
O           4.48710114407306    0.72020277830945    5.39328318697024
N           3.99706116625286    2.93951764274791    5.07373940051173
C           5.03256059140422    2.16428663561754    8.46827742760804
O           4.99519595721063    3.33611955706597    9.17614637679324
C           4.59361311326022    4.39823792584990    8.37593849826520
O           4.50397701015570    5.51712349794086    8.79742562510452
C           5.44185250937283    1.04599638913332    9.23882279319776
O           5.66512624288939    1.30592911744512   10.55675193798883
C           6.04868805265165    0.16993313984628   11.13359533622924
C           6.09544714644870   -0.85095429663079   10.23669330351668
C           5.70365761337624   -0.30978854352082    8.98023103867637
C           5.61018494301265   -0.99713408423399    7.73240134244123
C           5.95010347931619   -2.29155762079648    7.56115220750315
C           5.86735409665792   -3.01920849411568    6.31875943342961
C           5.39961788790363   -2.54570467387272    5.16253512368945
H          -5.23321526829939    3.15586087814064    3.24533580102138
H          -8.27445954419088    0.66166556752074    2.15929348103862
H          -6.33140430597142    0.20652513103086    0.30818536551277
H          -3.87108208349459    1.23779516246065   -0.05649732176676
H          -3.08181725691229    3.32990620302696    2.03410549904461
H          -1.65143108946514    2.15607575718721   -0.42916907252563
H          -0.88336290985123    4.25527960051834    1.66556031113950
H           0.36564726882102    2.31419905499098   -1.52444230367908
H           3.45562815507101    5.35139014905011   -0.29674023238360
H           1.93385844891727    9.44555639376609    1.85018144911294
H           3.49019354565860    7.81544165473960    5.77759956613461
H           3.75886698460473    2.88882143646729    4.09032975006868
H           6.26171795325836    0.20279411093243   12.18486892225362
H           6.37001187801692   -1.86396752145754   10.44310123097048
H           5.24640668409387   -0.42451406233023    6.89682571672371
H           6.32580445595491   -2.85855867450092    8.40314494257339
H           6.22157530492378   -4.04243093385779    6.36385247171520
H           5.02893368642243   -1.54183485502153    5.05588408655730
H           5.37528154977962   -3.16411398093123    4.28115692788720
