77
 SCF done       -143.248621406235          0.000295016402
C           1.01291519343867   -2.67622280909983    4.13513277078224
O           0.87586860347909   -3.97954065954059    4.39465997735950
C           0.84687701379851   -4.62359154117442    3.21357389908056
C           0.96465059146643   -3.74624624080123    2.18667166823521
C           1.07580772592020   -2.44920487639805    2.77826403617492
C           1.21916351985982   -1.21347451383106    2.06568598185861
C           1.34183391342694    0.00593081906370    2.63061264451880
C           1.48905945180977    1.19765224896331    1.86659284586064
C           1.60670049150958    2.42557289609854    2.42741209859370
C           1.76593956211127    3.66001465293985    1.73944799372482
S           1.29088223817418    5.11449412072770    2.56118069371068
C           1.66960509016235    6.04627520646569    1.15449938716909
N           1.48125958179778    7.43337959039106    1.19105262442760
O           1.74819306927587    8.06529293690271    0.18434452606282
O           1.06133707705242    7.90944515619138    2.23166666529822
C           2.14976125073632    5.28647710866147    0.11935068259258
C           2.22781432282388    3.91878206064356    0.43907585348547
C           2.81322260970216    2.92699417928834   -0.42354232822844
C           2.92535073300053    3.03978097931078   -1.75978435526496
C           3.54052631400327    2.05907000832975   -2.59434936192152
C           3.70875626958150    2.12702139385497   -3.94849796894665
C           4.36331208532596    1.00063857135256   -4.50259227481792
C           4.69660922554049    0.03960872982403   -3.50968800526826
S           4.18622309333581    0.56490092624417   -1.92875021717767
C           5.34437126050505   -1.13750930315659   -3.80419767682310
C           5.68150696966140   -1.37972964436179   -5.13793450086786
C           5.34474705036197   -0.42066194187844   -6.12894801773758
C           4.69557329232868    0.75610685297009   -5.83530301770177
S           5.86092138235565   -0.94468167426528   -7.70684234597211
C           6.53142715110546   -2.43250687816611   -7.04877282121031
C           6.34913938727258   -2.49464560502156   -5.68907940689545
C           7.19396988321962   -3.42260423404178   -7.82644314549671
S           7.93309692072450   -4.73630373772129   -6.95003478518446
C           8.47872692326662   -5.43292047415950   -8.43387801105702
N           9.21105923364164   -6.62898144168943   -8.38020739000660
O           9.59821755103057   -7.10205692551775   -9.43201515332752
O           9.40584308164977   -7.10757454766929   -7.27677440447160
C           8.11703402101307   -4.71102896993437   -9.53490087685335
C           7.37568050525215   -3.54888139024752   -9.21750434605606
C           6.87118769314487   -2.64379227820997  -10.19757772133134
C           7.02261561412388   -2.77221426663937  -11.54338066133614
C           6.49262521557913   -1.84710658803244  -12.46095647794024
C           6.60719190625516   -1.95344238483784  -13.82183546362466
C           6.09105960662521   -1.05156105016128  -14.79011552630419
C           6.34333746029690   -1.40443174630352  -16.07666607887187
C           7.07626122903848   -2.61093565283305  -16.21071280990487
S           7.43534361905462   -3.27656895680797  -14.62840514192945
C           7.47681849053842   -3.22894470165289  -17.37058277499735
C           7.24261115013671   -2.79130344272943  -18.70602316742296
C           7.75135848062653   -3.60557976658606  -19.65546123334431
C           8.43389493274306   -4.76014780241321  -19.14327683058076
S           8.37922631887132   -4.72946292104903  -17.37323953672934
C           9.03222301350264   -5.73496091885107  -19.84026576690617
H           1.05259605637687   -2.01168059705705    4.97496028078242
H           0.74065953105276   -5.68982473729846    3.23879980648312
H           0.97423728389546   -3.97045355685278    1.14005681671881
H           1.23067215619170   -1.29753866230537    0.98645624815334
H           1.33946710206546    0.10395748003494    3.70710275190802
H           1.47134255422318    1.08941583220033    0.79168575180667
H           1.51803194571991    2.50805670370348    3.50380549610035
H           2.46094801134492    5.72011449568622   -0.81337383358065
H           3.21274605965119    2.04582504582648    0.06037835267076
H           2.52247095172426    3.89913748542839   -2.27812935940773
H           3.37953188379664    2.96396612741730   -4.53860826348490
H           5.59111682646154   -1.85344982357440   -3.03660771477047
H           4.45128227934487    1.47174810528990   -6.60407031169189
H           6.68611769862251   -3.32657235975754   -5.09557503827229
H           8.38208368516670   -5.01778892857273  -10.52964553498494
H           6.31550597337856   -1.79081384032766   -9.84074411068362
H           7.56474210057205   -3.60887505812074  -11.96192471359050
H           5.95449961223214   -0.99288016699864  -12.07137398699396
H           5.54865256831119   -0.17071990248200  -14.49449340693243
H           6.02550342537532   -0.83715732375110  -16.93300960002131
H           6.70224122049161   -1.88418141962007  -18.91087206684535
H           7.67406106431955   -3.44018762545411  -20.71541312281872
H           9.04110060013643   -5.71487966280524  -20.91579382507641
H           9.51744103825761   -6.56160616307390  -19.35465536187682
