75
 SCF done       -124.635006075064          0.000549637575
C          -6.04882170788153    3.51897346730575   -4.46072525245756
O          -7.35704450895941    3.56605316249498   -4.74812977298362
C          -7.90942191362417    4.46640801439974   -3.91444257665259
C          -6.97487994640760    5.00267597110202   -3.09096994660022
C          -5.73318202806279    4.38467466260572   -3.44023693581456
C          -4.42657016534006    4.58947054304498   -2.88110301870835
C          -4.14310926792470    5.46318083654901   -1.89408301905288
C          -2.85757170619729    5.69654093587046   -1.31274180326518
C          -1.70790597015012    5.05201735591943   -1.62216365129108
C          -0.45554293731211    5.33169066720847   -1.01217084366091
O          -0.35716201231257    6.30292547997738   -0.07080400740514
C           0.92643662508621    6.35173560053799    0.32549867195941
C           1.68097621314613    5.43613572180135   -0.33027599332747
C           0.80010893772626    4.74821346499895   -1.21743213611797
C           1.10832911519341    3.68968103050035   -2.12009622322795
C           2.33663738643719    3.14672610633615   -2.29628675043033
C           2.59173894331336    2.08756937753492   -3.20310029501512
C           3.81860340178928    1.53625166465945   -3.38950871527195
C           4.06997570883754    0.47806511964270   -4.29193507367999
S           5.67813098077262   -0.19550628003623   -4.51091762191578
C           5.18798315756565   -1.37284064438338   -5.71084921654972
C           3.82143623537009   -1.23032129768176   -5.91553742107297
C           3.22108377403968   -0.21498483816709   -5.13393417507772
O           1.89603132638050   -0.19424456745429   -5.43809514868369
C           1.76595787817734   -1.17430305455041   -6.36515698045195
N           2.83666778477294   -1.80910561300298   -6.68467904765821
C           6.10204903219603   -2.26218705509006   -6.31083562527161
C           5.71667682567629   -3.16179521040149   -7.25492404409036
C           6.59046634377174   -4.06929657128356   -7.89617543862951
O           7.91013384514191   -4.10012992760316   -7.57770300658766
C           8.48624463312968   -5.03971322020972   -8.34590920211280
C           7.58317200871524   -5.63131037337788   -9.16756669974706
C           6.32609123196734   -5.01617763187442   -8.89553021678860
C           5.06010312311896   -5.27936588206313   -9.49390944351409
C           4.84244631881651   -6.15775100629734  -10.50057424110529
C           3.56186346036816   -6.38033644976801  -11.07189153511469
C           3.33696876877138   -7.22851798139540  -12.10425299183408
C           2.06108644699551   -7.45285359764929  -12.68829442543971
O           0.96884003078478   -6.82076404648104  -12.18989386363793
C          -0.08842465517806   -7.20530537996381  -12.92360016740797
C           0.27794639832292   -8.07551196315430  -13.89795990662547
C           1.68531752700130   -8.25718592182393  -13.76747817459543
C           2.54738204607300   -9.07591343676639  -14.56472700445231
C           2.15720224443684   -9.80791128162860  -15.62428383851240
C           3.05797848825025  -10.61270191437628  -16.40203493486376
C           2.68428677913240  -11.33181788895680  -17.45965639627925
H          -5.43982851711873    2.84725980472351   -5.03324748378377
H          -8.96457085492427    4.63447240222433   -4.00509162036391
H          -7.14038767002007    5.73983309395312   -2.33265309029677
H          -3.64516472116573    3.98211743797572   -3.31589525103005
H          -4.94940860284938    6.05972552903399   -1.48943218982589
H          -2.81174981389145    6.46323416241526   -0.55079021090808
H          -1.69698948568798    4.27274332308761   -2.36836476359745
H           1.17528809431082    7.07660251756565    1.07576683254415
H           2.72984930988579    5.26697151566818   -0.20278910669479
H           0.28392366393480    3.29832322083233   -2.70148199843679
H           3.17804975605074    3.52058159272914   -1.72951292927281
H           1.75459547959095    1.70476781190382   -3.77173492788254
H           4.66966998272180    1.90492441046470   -2.83362109802154
H           0.78952573516866   -1.35688304440378   -6.76908349788532
H           7.13462457198931   -2.20486521029997   -5.99846824727496
H           4.67829297856402   -3.19222844623876   -7.54787454630850
H           9.53972110455331   -5.19404143407371   -8.21567034981255
H           7.78179461391490   -6.40938814982815   -9.87489659126958
H           4.22150089594255   -4.71804462105556   -9.10440361666462
H           5.66783072867939   -6.72261273642789  -10.91231331580677
H           2.72798051782092   -5.83152342872356  -10.65569922101510
H           4.15997434579318   -7.77929904850513  -12.53660487040113
H          -1.04182568512765   -6.79343053571819  -12.65580802393686
H          -0.36816106055417   -8.53333935308733  -14.61771465224848
H           3.59099640763708   -9.08849021995483  -14.27795158950502
H           1.12144597342782   -9.80872283071565  -15.93378915053721
H           4.09417128947171  -10.61393111513837  -16.08724053188323
H           1.66039271224106  -11.34885107475132  -17.79530066709067
H           3.38332204772189  -11.92467172068219  -18.02342517979103
