76
 SCF done       -146.276927924710          0.000616211960
C          -4.07759468384535    7.38482681696837   -1.86600901820199
O          -4.81493801174447    7.29403764935088   -2.97567670690228
C          -4.04156365287843    6.72599418186649   -3.92113607081545
C          -2.80750382061352    6.44844455737033   -3.43411598816363
C          -2.81278039169538    6.87874845258644   -2.06948718415596
C          -1.76158276269965    6.80727648826185   -1.09974037331737
C          -0.52620328844595    6.31728765276010   -1.34368900310274
C           0.49567780025300    6.23689522056667   -0.36216651361778
C           1.72390470858927    5.72806812637281   -0.63772435654973
C           2.78087230385580    5.60388964951420    0.29411662444523
S           2.61644977814687    6.14903106153436    1.93328960052931
C           4.24175853231585    5.65473313952593    2.27475738059663
N           4.75032517723205    5.84791640075355    3.56241199658849
O           5.89842790834280    5.49416772368888    3.77439181927657
O           4.00942153902419    6.36042596996347    4.38469381235482
C           4.87705831913726    5.10143340460732    1.19276273280609
C           4.05977680889401    5.05961923932932    0.05085393029451
C           4.43476411949856    4.53116965684337   -1.22568917029059
C           5.64347433529230    4.06990188365529   -1.60225841632280
C           5.82317421380441    3.59747637713527   -2.94059727866277
N           7.01773097792993    3.17657434768837   -3.47545630773482
C           6.86926260763726    2.82084781548204   -4.77915487266219
C           5.54275076661778    3.00923087771839   -5.11461238030200
C           4.89400389717761    3.49504162006172   -3.95224107087861
S           3.17737235636656    3.70373993736594   -4.33024640969257
O           2.75641479942955    5.07917268838136   -4.23836748725616
O           2.36213124702959    2.74750710793401   -3.62994639747291
C           3.41454035971526    3.20212969655336   -6.06047541537420
C           4.70702873565774    2.86269419727874   -6.26907925655147
C           2.27608580048973    3.23548995404275   -6.89680863499686
C           2.25970407884936    3.00427409231481   -8.23345818061124
C           1.09425048571234    3.06847565859524   -9.03739069750440
S          -0.45476991925039    3.39349582260471   -8.32212207744571
C          -1.19855532656511    3.29331627593135   -9.87924052423469
N          -2.58452752411165    3.49247740008481   -9.97698184751403
O          -3.09013122610853    3.40363221181700  -11.08025801198636
O          -3.18154295804164    3.74004189792783   -8.94468706531515
C          -0.31516309343013    3.02816460265070  -10.89173682391125
C           1.00980567338193    2.89763596616510  -10.43255672030605
C           2.14450309175635    2.64682936149596  -11.27330186840571
C           2.11156870176897    2.49719171993851  -12.61239859261772
C           3.27059112505172    2.27753222063161  -13.41363429353307
C           3.31254455926917    2.13739662408720  -14.77159801826674
C           4.61856002258214    1.95022655407869  -15.29042251470622
C           5.59984266565504    1.94833124865619  -14.26469423939122
S           4.87466388852252    2.17511136739491  -12.69755206856232
C           6.94328544288005    1.78925300952759  -14.52391515961490
C           7.33517465573768    1.62748796023587  -15.85025148611796
C           6.35562574638967    1.62839493707115  -16.87658331378097
C           5.01149830552080    1.78530396960347  -16.61767549213342
S           7.09004733645982    1.41404089378925  -18.44371799961446
C           8.66141310912031    1.32918794802280  -17.72024814284638
C           8.64850025038464    1.45280992268837  -16.37735301193242
H          -4.53468716785447    7.81806058103133   -0.99807642571916
H          -4.48071455184276    6.57147854084071   -4.88656297907555
H          -1.99699864516566    5.99557384939218   -3.96494860865881
H          -2.00594962521478    7.17553435839347   -0.11129502090077
H          -0.27480419323296    5.95377752836268   -2.33021109426828
H           0.26948547655359    6.59101985534214    0.63659652521785
H           1.91538656953095    5.39084484539426   -1.64709575420830
H           5.88754093287627    4.74055601269656    1.24694610362180
H           3.65677821779029    4.50823798321063   -1.97283003066579
H           6.49629519767341    4.05415357602567   -0.94011454329807
H           7.88582990524426    3.14274518471609   -2.96423049371720
H           7.69498457879996    2.46758624201108   -5.36363642682222
H           5.10124334933124    2.50846951809437   -7.20864339379871
H           1.35588469287149    3.49377203385963   -6.38722657070084
H           3.18653304965008    2.76329074731630   -8.73293528653060
H          -0.63086141817989    2.93966150883337  -11.91469122568003
H           3.10743745686165    2.58600649951518  -10.78628092630797
H           1.18035163068758    2.54669396034141  -13.15857521640975
H           2.43431618937915    2.17048743934224  -15.39189240122212
H           7.67270192981936    1.79146090744944  -13.72937804418563
H           4.28195354096518    1.78373396134063  -17.41181481748343
H           9.51007689039050    1.19007312103603  -18.36145943649210
H           9.53047642040650    1.42474818557192  -15.76296536650141
