76
 SCF done       -138.807959623295          0.000282634038
C           5.08641738159892    9.60637537559367    0.52618674034497
O           4.98547496789957   10.91695912560228    0.76740941137676
C           5.71714320011066   11.54943504758054   -0.16839029454493
C           6.29211860110069   10.66074707427703   -1.01582005389699
C           5.88434215355057    9.36483354795216   -0.56915303474691
C           6.21044281777793    8.07662883037629   -1.10605413723114
C           6.98175359278385    7.85040426060860   -2.19006471126715
C           7.24858051109836    6.53560294079568   -2.66531124494148
C           8.01563769036452    6.25623020302483   -3.74698689774943
C           8.27645041331549    4.94899933939571   -4.24453219647666
S           9.73336689523868    4.66211641166163   -5.14358082441698
C           9.35762826964232    2.97570338200964   -5.22478281429900
N          10.24151125843178    2.12708858522579   -5.89230726250542
O           9.94613283431376    0.94605937474820   -5.97036660323950
O          11.25233698888465    2.62833198786858   -6.35714855672622
C           8.17219762459217    2.65363223552775   -4.61240963530329
C           7.52799744869451    3.77498230528570   -4.06348373629805
C           6.20674871626134    3.76663020499979   -3.49272034928094
C           5.58654974554806    2.69862223719816   -2.95868238439679
C           4.28205660507293    2.80841573332606   -2.35621797701696
C           3.39321905811814    1.78438596429282   -2.20191389226865
O           2.22660572052243    1.91642060375517   -1.45975590597823
C           1.98131169999521    3.16170717041475   -0.96815534766631
C           2.86944804927024    4.25164501626562   -1.20374005553685
C           2.43901606780255    5.41212506025732   -0.65172553142194
S           0.93690927980627    5.19344597890546    0.16976101675784
C           0.89533344740415    3.51769900262558   -0.23984647199857
O           4.03153819833460    4.09580096729107   -1.89424185155167
C           3.47521191622422    0.48102122673428   -2.79728427556738
C           4.23115209677846    0.15831033445938   -3.86616675660846
C           4.31833779304301   -1.12920358265881   -4.48740956132655
C           3.77028331432417   -2.32744596725844   -3.96092967327182
C           4.09937131382486   -3.43888335452519   -4.67507608950062
S           3.57462273143308   -5.06394444820902   -4.31237438038967
C           4.43930124564158   -6.00698946014015   -5.59864777461351
S           5.11822170015242   -3.05387082881585   -6.03015492596725
C           5.07195622555700   -1.35670965922723   -5.63905990159992
C           5.82883030054411   -0.45582658669139   -6.44431677251760
C           5.54426323210514    0.85093289727090   -6.64147943607142
C           6.42052909460521    1.78463537975660   -7.27196108441883
C           7.62211954370576    1.59434746624173   -7.88958354698544
C           8.27268144077000    2.80029581000327   -8.25469880166259
C           7.51706034977730    3.94764410697758   -7.89354198829875
S           6.00468516677268    3.49421094486746   -7.15760829798578
C           7.98065557009825    5.23005174742768   -8.08510627578397
C           9.24341921932538    5.38756054990829   -8.65186294288469
C           9.99231052590578    4.24268061472332   -9.02822258460775
C           9.52425938690887    2.95988097093499   -8.84784809827206
S          11.53105770884402    4.69268959761364   -9.70612587734426
C          11.16431775664589    6.36880068484314   -9.47959017773934
C           9.95370050662891    6.59188819180886   -8.92683275018508
H           4.56244718533505    8.93807451486436    1.18117841398193
H           5.74872676396122   12.61995262549696   -0.12410099958651
H           6.92413283234573   10.88724049229008   -1.84859609147329
H           5.78629342697737    7.23161994439904   -0.57797318528659
H           7.41036506238710    8.67831238677751   -2.73694390901800
H           6.82187915504412    5.72651353516303   -2.08983360687826
H           8.52875092701984    7.06507144849900   -4.25179992985597
H           7.78471888450924    1.65114828821948   -4.59971178705249
H           5.66922663098558    4.70244985504424   -3.54160174685239
H           6.07702289702542    1.73997406642178   -2.88614515599466
H           2.90725184213862    6.37363356720239   -0.68611329957265
H           0.08146578070068    2.90037382093455    0.07736461420880
H           2.77851063624032   -0.22976815025274   -2.37677928075232
H           4.83764239051553    0.92555689715923   -4.31643865389546
H           3.16472122006942   -2.37325973750017   -3.07548314243232
H           4.17917756921693   -7.04843225339488   -5.44004980833477
H           5.51118609327995   -5.86569255393477   -5.49408308551540
H           4.10287266635471   -5.67948896259002   -6.57824034976122
H           6.70402674925973   -0.87898548189124   -6.91989817430042
H           4.61446790280333    1.26605086690864   -6.27972641200861
H           8.06085918894878    0.62802529014421   -8.05736352311983
H           7.39317120996239    6.08712142395451   -7.79508890620964
H          10.11413377420681    2.10150074374275   -9.12654842572023
H          11.89343723102267    7.09614662745506   -9.78031415774470
H           9.55979460248447    7.56967614202935   -8.71377282069799
