75
 SCF done       -163.466401575253          0.000708516372
C          -8.02896074678877   -2.49237159626300   -2.57324977804514
C          -6.64777172329560   -2.48238326507456   -2.88345101503221
C          -6.23899213910555   -2.47686253766661   -4.19880014160617
C          -7.19219512598739   -2.42728504791059   -5.23065978279634
C          -8.57827549653382   -2.39630906842884   -4.90977353761317
C          -8.97248919386877   -2.44353427091908   -3.55667429593796
N          -9.50904296884537   -2.33346695433625   -5.88414286386691
C          -9.08076418414454   -2.30801475911389   -7.11681742172938
C          -7.70620950947785   -2.35967946293315   -7.43590803315287
N          -6.78179380514523   -2.41955793273882   -6.51788118939465
C          -5.68632147095035   -2.51791795089223   -1.77930881254350
C          -4.56316584487760   -1.74908976767440   -1.71471344432287
O          -3.64894599332272   -1.84582696022504   -0.67626132619135
C          -3.99164040825352   -2.72151956516917    0.31110088841184
C          -5.19492130018047   -3.48371863765140    0.26225447117930
C          -5.35834471588681   -4.28471850317103    1.34362216886655
S          -4.04121932224775   -4.12352579078444    2.44284679015866
C          -3.26548787628415   -2.96210526092549    1.42954737488333
O          -6.05923866927186   -3.39659180656755   -0.79189730154828
C          -4.26882227359954   -0.71479804269988   -2.65829661577933
C          -3.12641501316364    0.00503381767865   -2.62474296988778
C          -2.79317450233846    1.07512347945716   -3.50823056408283
S          -1.10985764560015    1.42454317699644   -3.75423659361204
C          -1.44475425582698    2.68143310004871   -4.90578348533266
C          -2.80957805269664    2.79099793199601   -5.10546078986464
C          -3.57240796712912    1.92089690920671   -4.28031076895249
C          -5.05862958753032    2.03556183006836   -4.12944044164166
F          -5.45377238682290    1.81376913251752   -2.86018643430508
F          -5.51266878507727    3.25899977419063   -4.42114103171252
F          -5.75511614881356    1.16926893210997   -4.88938602422295
C          -3.40795199824125    3.60662848529926   -6.21138672618757
F          -2.57583849468046    3.71018181492740   -7.26482675305055
F          -4.52443057551053    3.05773471290278   -6.70396932276283
F          -3.71268831121844    4.86789911034154   -5.85686874253948
C          -0.34322663499692    3.43227126125191   -5.41982859708931
C          -0.39575009553850    4.72624306327492   -5.80546460725875
C           0.71892839664441    5.47341697371435   -6.27656647321339
S           0.53815869408090    7.18346851419124   -6.53935345985055
C           2.19971768071595    7.32259153252955   -7.03470375491259
C           2.83374229803704    6.09428530499389   -7.00334522597488
C           2.00508695048454    5.06193141309013   -6.57574623527453
C           2.74842178178718    8.54561301064829   -7.38011595833535
C           3.21946162774372    9.63020549914879   -7.65911032894112
C           3.76679349572695   10.87087376351731   -7.95716403169770
C           5.03501151787407   11.03898808430409   -8.39407029452865
C           5.60029736163304   12.31813995874959   -8.66867128033165
O           4.89837149752192   13.44999392132809   -8.47770317646710
C           5.68193220871696   14.50494897460121   -8.80225580087660
C           6.91667447012008   14.05541027763479   -9.21565913218316
C           6.86797226636031   12.65141198783824   -9.13070974034417
C           7.95562744349632   11.70164920450400   -9.46966224350820
F           8.31721807299231   10.92971575625726   -8.42445744059673
F           7.60928600550175   10.84141259697793  -10.44887149247612
F           9.06621215696679   12.32184473459599   -9.88520798394900
C           5.13034796126439   15.82634167152999   -8.66374358707650
C           5.78453296528891   16.95300152284094   -8.93246452771072
H          -8.32129046257271   -2.52444984529038   -1.53474467203240
H          -5.19748331402850   -2.53673902889734   -4.47300580115160
H         -10.02742482201535   -2.43540513169189   -3.33195943067944
H          -9.83371609598819   -2.24965295353058   -7.89143662513711
H          -7.36994528761554   -2.35233136348638   -8.46418171116895
H          -6.16713871259366   -4.95288909636199    1.55295086695929
H          -2.33006176776192   -2.52881566079963    1.71480342485389
H          -5.02890686253809   -0.52784598876176   -3.39642522792258
H          -2.35471826991795   -0.27229384055794   -1.92043033180806
H           0.60698455084969    2.91784100657810   -5.40107898702826
H          -1.32300474563735    5.27603462206778   -5.73178124500539
H           3.86530771176886    5.97217995362648   -7.28143672177448
H           2.32800789640948    4.04006327828640   -6.49444468625844
H           3.12465959088960   11.73073042136076   -7.81425752472698
H           5.68043653891953   10.18714646268910   -8.54795517341537
H           7.75137542568584   14.64205048052395   -9.53725030907981
H           4.10868203376824   15.84854627922896   -8.31023385503119
H           6.80113374227261   16.95159605665958   -9.28441032404525
H           5.31681122037566   17.91297029412616   -8.80731177878334
