76
 SCF done       -134.441079042315          0.000284715603
C          -3.33811602281379   -1.07388202336729    0.57340489960958
C          -3.56636603320785    0.21912016635809    1.10506517960200
C          -2.64601141307074    0.78080684771392    1.95504285007867
C          -1.46289153423953    0.08752251353676    2.27268069046352
C          -1.23110758919539   -1.20179934341401    1.71587948261996
C          -2.20221375173137   -1.76916511886289    0.86556940246987
N          -0.10208966204751   -1.88342153745781    1.99900363031706
C           0.75641199844252   -1.30888938539708    2.79748104087963
C           0.52661971172564   -0.03224651030287    3.35224136342738
N          -0.55583480599203    0.65166439837309    3.09909406814438
C          -4.81289928448558    0.91963923519160    0.75063898500023
C          -5.22124714095385    1.00187857693160   -0.61330543176200
C          -6.45420044005396    1.51468561128318   -0.94159588769451
C          -7.30604761908841    2.00958879349964    0.06121227942510
C          -6.87326385889379    1.98781014086183    1.41774344917955
C          -5.62330529414403    1.42465830966478    1.73523940425132
N          -7.65804166495719    2.47876008948294    2.39970458174911
C          -8.81790157913921    2.96429225321095    2.04852684750458
C          -9.24939757915338    2.98108312422939    0.70487995820020
N          -8.51329565333114    2.51702673432312   -0.26786994130241
C          -4.32118646659379    0.57408388491836   -1.66891747384233
S          -2.62516844603781    1.12643924992360   -1.67252022807565
C          -2.41381238662127    0.21638984713957   -3.10832280187445
C          -3.60400550359560   -0.41100093016584   -3.47148044498678
N          -4.64696292156036   -0.17943500243817   -2.66841833197040
C          -3.41071438487267   -1.26259937382074   -4.68599610141532
C          -1.94630282948654   -1.06005590355448   -4.94658381600290
C          -1.40396494297627   -0.16711877679622   -4.02449856214322
S           0.26524396602957    0.11512798966653   -4.28593911272955
C           0.25732559879082   -1.01886006445061   -5.62112628618091
C          -0.99760665311115   -1.54989606283876   -5.84190943082887
C           1.49332536735691   -1.32766921107938   -6.27316238915019
C           1.73086613234226   -2.49191858131403   -6.89769447326440
C           2.99385148078609   -2.85043015660084   -7.52222765838790
C           3.48330218068066   -4.18716400425241   -7.39641202048451
C           4.62356195710643   -4.56814333212039   -8.05785422071048
C           5.34262657174430   -3.64708971845670   -8.84173178014801
C           4.88317645877871   -2.30238925564762   -8.93038122345954
C           3.70246876271119   -1.93329575355975   -8.26485099981362
N           5.56261794059359   -1.39022062720176   -9.65897802262815
C           6.64129376963736   -1.80060499123677  -10.26921869559742
C           7.09231015098627   -3.13467912143683  -10.18550933509095
N           6.46023329654373   -4.03955950606822   -9.48705355552207
C           2.80887673633053   -5.13934526493373   -6.49840370081995
C           2.57007217293733   -6.46750245137942   -6.92177884683762
C           1.96760389165465   -7.37715717262519   -6.10084740152930
C           1.57422658430606   -7.00116724978247   -4.80032585294493
C           1.81581684004724   -5.66869378066875   -4.36284278732322
C           2.44019799170117   -4.75541724070451   -5.22954035262856
N           1.44742736076240   -5.27111227181797   -3.12512300855762
C           0.87453698659861   -6.15947201635985   -2.36065045579272
C           0.64108464907825   -7.48318273523351   -2.79244693865438
N           0.97834331556032   -7.89580687675920   -3.98415756814205
H          -4.09102775833949   -1.50862522974612   -0.06860192878377
H          -2.79197628279915    1.76488297616283    2.37270707628349
H          -2.01749841051478   -2.75239360827506    0.46174575899094
H           1.65960992478628   -1.86213356052348    3.01853805943408
H           1.24766451705090    0.42768499742831    4.01508548622704
H          -6.77542764830817    1.56047291502900   -1.96995816726969
H          -5.33604770715728    1.36932208998444    2.77395399398253
H          -9.43981188083499    3.35721968272648    2.84178596995703
H         -10.21531101832022    3.38517379324929    0.43251441610756
H          -4.02589858321637   -0.92350874177714   -5.52175759203399
H          -3.66067479189093   -2.30694070434909   -4.49199542406253
H          -1.20546609185006   -2.24833675751262   -6.63188861256611
H           2.28806295804734   -0.60179165665338   -6.16355377354194
H           0.96226775402153   -3.25279566120903   -6.91151124849963
H           5.01539986407441   -5.56977344030874   -7.96644254000505
H           3.34850100124586   -0.92040582946324   -8.37844832501383
H           7.18063537013884   -1.06363235268127  -10.84947208665816
H           7.98659228091513   -3.45725513506753  -10.70191629243717
H           2.86066245606930   -6.74987634896397   -7.92309462509867
H           1.77856305554550   -8.39104194875015   -6.41756710175689
H           2.63390382997073   -3.76010381306374   -4.86132811183856
H           0.58222500857825   -5.83246997796086   -1.37149699699276
H           0.16730574091633   -8.20784810245569   -2.14353090906141
