80
 SCF done       -179.025601516463          0.000496440145
C          -4.04757351187574   -2.16046567256554    7.96727319012632
C          -4.90729294241103   -2.47150766073464    9.05278427308796
C          -4.81449550499980   -1.75794670576782   10.22820954840012
C          -3.85357132409922   -0.73961100217560   10.35469737016231
C          -2.98135545689991   -0.44709906858372    9.26840063442755
C          -3.10759350972491   -1.17915549382105    8.06932582176062
N          -2.04805939635091    0.52010986723550    9.37662147580493
C          -1.98848849524366    1.17110977087909   10.50592911161244
C          -2.86257384478168    0.89080626292239   11.57973082675231
N          -3.77169445942010   -0.04066678354584   11.50762152280606
C          -5.87676271242975   -3.53542571964821    8.86579577244190
O          -6.24458705436750   -3.84466257621970    7.61207525630541
C          -7.13592668511852   -4.86048566127888    7.65540237322487
C          -7.34511136693059   -5.22885089599430    8.96731626787600
C          -6.53590241224307   -4.37899583344272    9.74793144393877
C          -6.41645775320327   -4.46800342330229   11.22724140422381
F          -5.14390665948497   -4.42776488666012   11.65526129818797
F          -7.06367648564473   -3.47712774059838   11.87222957317394
F          -6.93817754649100   -5.61207501306219   11.69414884269978
C          -7.70297505737475   -5.38817084709662    6.45858786293175
C          -7.40231471024174   -4.94142726036038    5.22046545131325
C          -7.97421870116878   -5.48104240613594    4.03273586707463
O          -8.87537040080332   -6.47953653170703    4.08223567808319
C          -9.23928652823222   -6.79107231544662    2.81353008092071
C          -8.56270638976455   -5.98004915932694    1.92252665851193
C          -7.75216248060309   -5.13924870671941    2.70241888318677
C          -6.82583097858233   -4.08212659539826    2.22061376130923
F          -7.14163969806642   -2.86295467065154    2.70249748300399
F          -5.55195488697768   -4.30078545418804    2.60565817233451
F          -6.81188561777076   -3.97726021776332    0.88991431948922
C         -10.19035681636547   -7.82259226834414    2.56328239665616
C         -10.79814838108990   -8.53186221973690    3.53701225616092
C         -11.74545066831800   -9.56150127707879    3.25706874499726
N         -12.39025525746416  -10.28459945486637    4.23818978199064
C         -13.23332411857430  -11.19587565411090    3.69738316405545
C         -13.14788754470436  -11.07597615756784    2.32132401726738
C         -12.20989591562115  -10.04655049199781    2.05501348384405
S         -12.07494313604441   -9.87091518232711    0.29261392497907
O         -10.76979155667994  -10.24658534981644   -0.17287185672453
O         -12.58870204571346   -8.60167668141507   -0.14308604097460
C         -13.29123602892386  -11.19450424515485   -0.00732642509160
C         -13.73157287297914  -11.69330681159687    1.17356405103375
C         -13.62394920206652  -11.52309454248816   -1.33846482655044
C         -14.57102981148437  -12.43256229764696   -1.70230604578258
C         -14.85792198359734  -12.72699402772959   -3.05143302207894
C         -15.82077224545011  -13.61137771115296   -3.45759122951243
C         -16.15954389214367  -13.93499554320935   -4.83626964285774
C         -15.29796952654976  -13.83707708190472   -5.89308831734738
N         -15.64753991196308  -14.02563208383623   -7.26454015998173
O         -14.76101532431391  -14.36601499814740   -8.01675202404179
O         -16.80408635307279  -13.83841192061806   -7.58606040932892
N         -13.86735420209818  -13.61757590637168   -5.69861939524655
O         -13.30727127407376  -14.36084115879106   -4.92820066331831
O         -13.36197502190224  -12.71695462508925   -6.31943827985403
C         -17.49304117143899  -14.50697943452997   -4.81611785759180
C         -18.44440144273095  -14.94317329084845   -5.69141846369823
S         -19.78085197689545  -15.63593953336274   -4.86240108603319
C         -19.07503867825816  -15.34307588448182   -3.31667779145040
C         -17.87067429123920  -14.73411576377665   -3.44902654289000
C         -16.83030822125030  -14.22610509365740   -2.54690812587196
O         -16.81922991215960  -14.26730437595142   -1.33762995222690
H          -4.14822596727595   -2.72746523641879    7.05465749790548
H          -5.46951210093816   -1.92501757149092   11.06602244273800
H          -2.44553824022466   -0.93931941901490    7.25240402028578
H          -1.23455480926156    1.94289822601273   10.58357637625107
H          -2.80601392607646    1.44491338866318   12.50702911134615
H          -7.98352202257103   -6.00760446515663    9.32985935053662
H          -8.40962619259186   -6.19344261082786    6.59055383212789
H          -6.69559045378311   -4.13628470298034    5.08918013299645
H          -8.64224753611793   -5.99199454505733    0.85538881442547
H         -10.41555373004190   -8.02134755537129    1.52569887620832
H         -10.57542909015470   -8.32924216437365    4.57556481065996
H         -12.24528531536233  -10.14777950866334    5.22666210708475
H         -13.82477112600763  -11.85204019187965    4.30413923518161
H         -14.45187294427200  -12.49138524193407    1.26416335184474
H         -13.06289969201335  -10.99188738061457   -2.09762797778738
H         -15.12765926531126  -12.96439120969313   -0.94609890233794
H         -14.29599314928559  -12.16949961605269   -3.79139121384414
H         -18.46338756742678  -14.87472695133436   -6.76067845046842
H         -19.58591551480907  -15.63621977504312   -2.42154730285447
