71
 SCF done       -126.232620991816          0.000734609448
C          -5.42659000948650   -3.50635745482292    6.07762399182855
C          -6.66917297238766   -4.03617102517539    5.63898739956689
C          -7.44589608834481   -4.74387513482446    6.53562550156494
C          -7.02257733285619   -4.93523602255402    7.85878680071098
C          -5.77605397729208   -4.39436368629206    8.28495412921277
C          -4.99137351540744   -3.67792646502245    7.35720003693239
N          -5.34719309214399   -4.56026278155891    9.55132331916588
C          -6.12238608040127   -5.23441769397142   10.35908148648338
C          -7.35638099308684   -5.77294979054809    9.93849082718238
N          -7.80020751016903   -5.62979618299580    8.71973188741499
C          -7.10834487671241   -3.83932172404464    4.27740334965234
S          -8.59229351169772   -4.55973462027522    3.71957468775135
C          -8.37281523751237   -3.88649965284452    2.12751629654082
C          -7.21255449083968   -3.14711546147606    2.06019536821737
C          -6.50777334690398   -3.12428467577273    3.26561453349165
C          -9.29559079212805   -4.12905390089991    1.12343956084278
C         -10.12065896996637   -4.37501603628606    0.26639429326462
C         -11.06330874463225   -4.68068875822586   -0.70652066750928
C         -10.95992115219890   -4.28925851082066   -1.99781022798616
C         -11.89793857231664   -4.61728664345130   -3.01559369579983
S         -11.61588028558802   -4.08128784455815   -4.64978284763290
C         -13.07308731719000   -4.86413228518844   -5.20199636475933
C         -13.72351326308948   -5.48963250309155   -4.15592397290575
C         -13.06709165314034   -5.35046328133256   -2.93666945224997
C         -13.45881423669438   -4.83636764974633   -6.52935373942892
C         -13.78994898375583   -4.82621407310681   -7.69940256412213
C         -14.21799681661976   -4.87187732697028   -9.01700242640683
C         -13.62256354766902   -4.19230896114684  -10.02773028426781
C         -14.07283329594383   -4.28182451234713  -11.38064480652804
C         -13.53761931994626   -3.58449917258221  -12.43596350479714
O         -13.99924090905684   -3.73395449198818  -13.73387270555501
C         -15.02662919670187   -4.60981409386115  -13.90076377384718
C         -15.59105969547505   -5.32211276068967  -12.80462376085213
C         -16.60575641239555   -6.14137928821136  -13.17379534376519
S         -16.88992246440557   -6.05577992019085  -14.87307721182396
C         -15.62359336100559   -4.90269403564976  -15.08203747302729
O         -15.12628367111928   -5.16881781467858  -11.53529799323925
C         -12.47469376781064   -2.63230226099185  -12.32733601960748
C         -11.97442952948965   -1.97398495787502  -13.39510245885874
C         -10.92061458152373   -0.98887859832712  -13.37861781132158
C         -10.49850238763073   -0.45018316299629  -14.62465583305278
C          -9.51279667711876    0.48562322803641  -14.71067744948343
C          -8.87992119865339    0.94979599199572  -13.53825727373327
C          -9.29155323490624    0.42425173748284  -12.27958465079789
C         -10.30867728322686   -0.53999633015220  -12.22262745946720
N          -8.70833338774768    0.84973609996997  -11.13530877084619
C          -7.76730767635775    1.74732798885904  -11.24487422741885
C          -7.36062750710115    2.26399615729282  -12.49238869056125
N          -7.90414943968979    1.87523076063349  -13.61571843479599
H          -4.81410392362416   -2.95886586937232    5.37872186010236
H          -8.39609201133126   -5.16488148580336    6.24213400352654
H          -4.04755751619548   -3.27646497724507    7.69217801520918
H          -5.77199159394287   -5.36201470084766   11.37467509789898
H          -7.98465745732713   -6.32983697990743   10.62132327756754
H          -6.89601341091476   -2.64527891443610    1.16319249068891
H          -5.58243798852003   -2.58967139449865    3.38326760982266
H         -11.90316225589448   -5.27669595287194   -0.37399717002107
H         -10.10689888397769   -3.69656655532426   -2.30081509845541
H         -14.64526416201466   -6.02713976116617   -4.29184429126278
H         -13.43418186934376   -5.77506109340285   -2.01969092401789
H         -15.07697283857881   -5.49797592212183   -9.21977155776356
H         -12.77222569607943   -3.56673265079153   -9.81407270101547
H         -17.19637243796103   -6.78268776713340  -12.55400703331643
H         -15.39754163844177   -4.51321420338021  -16.05222905279248
H         -12.08486228852822   -2.44987266087166  -11.34095444629907
H         -12.39170065304353   -2.19367441229200  -14.36819958052274
H         -10.98245762866132   -0.80442203688943  -15.52378567606747
H          -9.19326929522538    0.89256876681613  -15.65748348841602
H         -10.58985283085680   -0.90536489951783  -11.24812133759248
H          -7.30731158214204    2.08270930424031  -10.32444303979371
H          -6.57744966983253    3.00700375007214  -12.56353853082963
