81
 SCF done       -139.370939368633          0.000398493373
C          -1.75189760484247   -3.52878094986894    2.41964538099523
C          -3.07016677968001   -4.05214216809582    2.33533021181591
C          -3.49515854518443   -4.96035636052779    3.28406686983560
C          -2.64352426245214   -5.33950075564314    4.33567980907029
C          -1.32902607784251   -4.79652427795952    4.41310932856462
C          -0.90450898737471   -3.88749090580782    3.42283774527575
N          -0.49083852998411   -5.14168188830576    5.41006554558057
C          -0.94183864181339   -5.98359697825734    6.30105675059054
C          -2.24613509457938   -6.51555879079978    6.23433656271092
N          -3.07753554155181   -6.20837188188424    5.27584341515906
C          -3.92625392841908   -3.61716071017400    1.25383107078322
S          -5.35607184921602   -4.49847034721848    0.80129760670427
C          -5.68584456811017   -3.37522604746870   -0.48921912624267
C          -4.73997759606798   -2.37338428054596   -0.52940327567411
C          -3.75574413736498   -2.51357459731616    0.44835252348926
C          -6.74081371954245   -3.51431494557920   -1.37785718851530
C          -7.60120262509354   -3.56448518105058   -2.23336870218288
C          -8.54289183452095   -3.64506620808688   -3.25338524454705
C          -9.56305317077023   -4.52803662770821   -3.24603387926720
C         -10.50187399885500   -4.68384267760359   -4.30976248885319
S         -10.48054490216106   -3.58103746728178   -5.66658071209195
C         -11.79789165910207   -4.38470659257465   -6.39816681172619
C         -12.23473302292799   -5.44450913900488   -5.65791807104102
C         -11.49427387134147   -5.63264550946961   -4.46244511224304
C         -11.80192041847226   -6.77651171571290   -3.52323495153308
C         -12.61397059154174   -7.84595873778348   -4.26954364752826
C         -13.83497908176987   -7.23229161699247   -4.93944981104120
C         -13.40016397607833   -6.30488757770185   -6.06679376707210
N         -14.49628076230428   -5.36288072369002   -6.43264715209096
O         -15.20293976565391   -4.94789593325998   -5.54942380187692
O         -14.56824173785359   -5.04741616672961   -7.59533824024458
N         -10.63033018690014   -7.39434080529420   -2.95181006427799
C         -10.23936014258902   -7.19914133121198   -1.66016060132359
C          -9.02186906569534   -7.49929529392941   -1.16792337058864
C          -8.64779120588885   -7.29905873440707    0.19555402326723
S          -7.14927827704727   -7.95908033496737    0.78059984097784
C          -7.46269842904940   -7.35491983813620    2.39153695768626
C          -8.65263789673092   -6.66314143017535    2.42875878191083
C          -9.31400076809395   -6.63117551409931    1.20053777205222
C          -6.62361699448200   -7.64221604735251    3.45338548975170
C          -5.92864846301836   -7.94921172504932    4.40120477564358
C          -5.17370695518156   -8.33071749945529    5.50396586092369
C          -5.53010260972584   -8.02678486755599    6.76868663566717
C          -4.81203876053540   -8.39896680879094    7.96402781645565
C          -5.22044779671875   -7.82301396184345    9.19740119588073
C          -4.58277555610331   -8.09656211079837   10.36956267361544
C          -3.48294009377059   -8.98032250193283   10.38342091284362
C          -3.06596862317130   -9.57801395199360    9.15864815049704
C          -3.74396596377318   -9.27888427365716    7.96818485225032
N          -2.01440477846066  -10.42956031088264    9.13442000860955
C          -1.41879003802690  -10.67180955260837   10.27044090176344
C          -1.83515558102174  -10.08069325155189   11.48065980952984
N          -2.84428170070872   -9.25109730106779   11.53777524661998
H          -1.41158320773523   -2.84469132993889    1.65838801848933
H          -4.48589409712474   -5.39020611137188    3.25178870190482
H           0.09860483450864   -3.49547983996233    3.48663938941981
H          -0.26557832789345   -6.25847614592017    7.09946832217859
H          -2.60237369052393   -7.20511651558743    6.98751053139119
H          -4.77177687510901   -1.57647708569874   -1.25078251642079
H          -2.95230249183692   -1.80941119977493    0.56667330395339
H          -8.40313779866311   -2.96835620942782   -4.08871614527314
H          -9.67688718142218   -5.17129591516374   -2.38712169252712
H         -12.18663742935720   -4.03254480058432   -7.33374314679451
H         -12.40721437296356   -6.39424855313053   -2.69025001952436
H         -12.92194351270446   -8.61206375588936   -3.55795641095111
H         -11.97696037249553   -8.31927778099387   -5.02037042947449
H         -14.40392431508140   -6.65338282419290   -4.20831763637182
H         -14.48373362108826   -8.01535891897803   -5.33508307573861
H         -13.15716114901694   -6.85496439039279   -6.98291655703379
H          -9.90904285104156   -7.66464220731379   -3.60396568980167
H         -11.01250523601793   -6.80596993276629   -1.01475211194999
H          -8.27147664940245   -7.92522099635664   -1.81945664215239
H          -9.02385402894235   -6.20450655131172    3.32842970667761
H         -10.25316901053912   -6.12883253374509    1.05327001611725
H          -4.28048750494229   -8.89983421975453    5.28646163462568
H          -6.42084354491777   -7.43043835972545    6.92053500082405
H          -6.06075286792588   -7.14305438532623    9.18885540626795
H          -4.89303269168647   -7.65489850325130   11.30398797602877
H          -3.40288111941637   -9.76538309892468    7.06765408835099
H          -0.57864869976944  -11.35377814182747   10.24168992057052
H          -1.32800501774493  -10.29352448577774   12.41243155065158
