84
 SCF done       -153.588893568847          0.000609100748
C          -4.34306376109380    1.77028640537347    2.55865657147125
C          -4.66410621044370    0.40954057480400    2.33056682378907
C          -4.36401997442429   -0.53686015364072    3.28377596637701
C          -3.68925377100638   -0.16435434798302    4.45804980237696
C          -3.34613451861033    1.20116926377733    4.66815164788858
C          -3.70415009275336    2.15960856575727    3.69804085546097
N          -2.69318197553609    1.58208336210365    5.78486872119902
C          -2.38431668830472    0.64851203911576    6.64342055022543
C          -2.72134241719894   -0.70602386556489    6.43367498580413
N          -3.36332873776064   -1.10587646384822    5.37066036692390
C          -5.34061548434737    0.02594109608775    1.10203172588964
S          -6.77495822999776   -0.92742482915646    1.17042995375269
C          -6.98319672011669   -0.90648037181696   -0.55272005943261
C          -5.95145981906191   -0.17644208118748   -1.16183771142042
C          -5.00818428247332    0.34061221642731   -0.20948374656115
C          -3.84615178418452    1.01891073964866   -0.67796009027731
C          -2.78816023749946    1.39067355623606    0.17902808138757
N          -1.86707854658813    1.68111397923594    0.79846245373962
C          -3.69550984541769    1.26147348254042   -2.02835665823206
C          -4.65542261767566    0.83218182790614   -2.94682800015469
C          -5.76028168665931    0.10621667011324   -2.53909410610802
C          -6.65458636652071   -0.31024683953836   -3.54960069010028
N          -7.33369487018888   -0.60308539790136   -4.42732479138143
C          -8.05670474588738   -1.57380987608886   -1.17865805329541
C          -9.13117732273965   -2.10839494512370   -0.53847132718929
C         -10.16017743513239   -2.79420370403778   -1.21983271312094
S          -9.96041027799543   -3.23538110448842   -2.88641902269719
C         -11.55484436771286   -3.90391673277013   -3.01010767472017
C         -12.20597438230419   -3.85308864939255   -1.77005253598467
C         -11.42004934046917   -3.20637804846547   -0.75645973315391
C         -11.96646663855088   -3.04838665080826    0.54365138177729
C         -11.28718517951401   -2.38476998315398    1.58809343994415
N         -10.79797185105098   -1.85322054338376    2.47978434700249
C         -13.21861140842517   -3.56146639737720    0.83292533362012
C         -13.93869243992254   -4.27342336285014   -0.12473004093927
C         -13.44861643426263   -4.43670899882215   -1.40840174775851
C         -14.18690506443152   -5.27797675423437   -2.27000386142348
N         -14.82336234952813   -6.01327929384582   -2.87809211533358
C         -11.96193915317512   -4.32162053163425   -4.30226418246038
C         -13.20112776747756   -4.23783154458611   -4.84760192892097
C         -13.41506388171415   -4.61293063563556   -6.19392840362503
S         -14.92860446360878   -4.17890334019417   -7.03476391449746
C         -14.25542444284575   -4.85736646238309   -8.45574066881936
C         -12.97787822730928   -5.37417723546009   -8.18686881733480
N         -12.53764778429956   -5.22076917264967   -6.94888765534100
C         -12.37132964622856   -5.96890221260766   -9.41636293318630
C         -13.43919438078535   -5.68049502662744  -10.42842278217798
C         -14.52656228673341   -5.03542367419730   -9.83061606334035
S         -15.75281783491133   -4.63247663611981  -10.96222888470368
C         -14.79892918705296   -5.32779139649413  -12.25974759765569
C         -13.60290699595558   -5.85144674205152  -11.79636018139476
C         -15.21870570012470   -5.28317589656548  -13.61576613420844
C         -16.32097466632462   -4.66529482947996  -14.08029045921266
C         -16.63764649441743   -4.60932221300975  -15.48920929794284
N         -15.83465753633318   -5.25280178434455  -16.34586826207545
C         -16.13568790578841   -5.16641326920679  -17.62633115820923
C         -17.22344962446841   -4.44424642775243  -18.09101841234664
C         -18.00871064488387   -3.80298204956093  -17.12601541098862
N         -17.70688464122917   -3.89814356765834  -15.83409249914532
C         -19.17197742523057   -3.01008998110490  -17.50713823823586
C         -19.93619131710455   -2.37788679652621  -16.62552503478257
H          -4.63368918303086    2.50448567159883    1.82144687226014
H          -4.61138828195742   -1.57771205628152    3.13939758315799
H          -3.45583092402826    3.19228141584177    3.88363503293942
H          -1.85564980861267    0.96261382811303    7.53352128661383
H          -2.45851053157982   -1.46686693070807    7.15668804605824
H          -2.81628878905206    1.78051812327499   -2.37918279702523
H          -4.52349977561005    1.04846149216302   -3.99626292622215
H          -8.01215898787422   -1.64413337155282   -2.25646162329703
H          -9.22587687986870   -1.99286873879459    0.53144107453231
H         -13.62703274772193   -3.43329529088363    1.82404396335575
H         -14.88563376031477   -4.71896402412956    0.14041004794373
H         -11.16310768253733   -4.63058589572274   -4.96443036520083
H         -14.04118290239377   -3.82328389600972   -4.31241169006877
H         -12.19032387452881   -7.03880755382851   -9.29650390659809
H         -11.42037008669102   -5.49730698676474   -9.66922478042756
H         -12.88731065479752   -6.31823332158314  -12.44891241126973
H         -14.56685318239297   -5.76758725251155  -14.33100085628739
H         -17.00800310702808   -4.15409425344810  -13.42163955271861
H         -15.47463718219958   -5.69551815396275  -18.30274462676041
H         -17.45385581612441   -4.37741282695910  -19.14204095553272
H         -19.37726663381275   -2.96324653960571  -18.56849623511675
H         -19.71242416356054   -2.43782546706329  -15.57428102342445
H         -20.79011515902106   -1.79407092942079  -16.92306956571797
