91
 SCF done       -174.095644582873          0.000918813079
C          -5.49240017275564    0.05623483568029   -6.82547267410995
C          -5.94328151376496    0.17727807461359   -5.48866490866950
C          -6.67809570135039    1.27314405202693   -5.11114142927695
C          -6.92916469231875    2.30698000210187   -6.03468102518729
C          -6.41834467858230    2.20541553956410   -7.35924522027060
C          -5.71777321773299    1.04250487093484   -7.73946075627537
N          -6.59303610926264    3.20594355123428   -8.24617860946704
C          -7.26827238661936    4.24806720553228   -7.84527506383708
C          -7.80611538749689    4.33501273956565   -6.54499893837097
N          -7.63382594874796    3.39546342681627   -5.65459455233130
C          -5.57875497462233   -0.87545225559228   -4.51853956536864
C          -4.19909038616116   -1.17549340970068   -4.29291083970614
C          -3.83826926712271   -2.19922962440660   -3.44971176962588
C          -4.82658381972884   -2.95375970378684   -2.79193712689987
C          -6.19961444946822   -2.63745616828160   -2.99156892071735
C          -6.54780139819422   -1.58814911626033   -3.86382040526150
N          -7.16659505591301   -3.33579033562618   -2.36028538048878
C          -6.78431473729604   -4.30088208008447   -1.56901184299059
C          -5.42151873329348   -4.61106129689982   -1.36621971008679
N          -4.46427233788543   -3.95402208208013   -1.96113537571544
C          -3.20121296658611   -0.33890970497272   -4.94680122773824
O          -3.47934242497152    0.96454842759836   -5.09238041164553
C          -2.50178227666953    1.54605500689208   -5.82134287031875
C          -1.54600730764165    0.60582103748582   -6.13082403092244
C          -1.99403867130485   -0.60941903831037   -5.56219713969462
C          -1.31853190127432   -1.92614725606390   -5.68550544990656
F          -2.17552514671284   -2.91718132430577   -5.99474110527240
F          -0.37930562559207   -1.92287510100725   -6.64068200746035
F          -0.69959355821508   -2.31083930356555   -4.55194717419806
C          -2.67997820806802    2.91084695924271   -6.22315193670180
C          -3.72613936115504    3.63108729737393   -5.78285091995427
C          -4.14947023501431    4.94187738244605   -6.22254466118934
C          -5.13140125751151    5.59896935744907   -5.46827904322480
C          -5.61787084602885    6.80469470105299   -5.92342369012494
C          -5.15591192846560    7.37058639853656   -7.11847215579389
C          -4.18580990813494    6.73155510976497   -7.85931722468393
C          -3.68324199793944    5.52267610966114   -7.40476058407597
C          -5.90630068483331    8.64217730971768   -7.35907206301655
C          -6.84225337792488    8.71076483046400   -6.14772011570136
O          -7.64563738215883    9.57859659990032   -5.90199633733882
N          -6.60770289502810    7.60803943185308   -5.37495785861022
C          -7.29743506084192    7.34352500500993   -4.13268378258514
C          -6.44647138406290    7.69507350639650   -2.91612152735897
C          -5.01824210653221    9.89825901673065   -7.42806187010405
C          -4.13413886112174    9.86753864537939   -8.67642556040318
O          -4.48153781750403    9.79026431549902   -9.82559497496203
N          -2.83285739367836    9.92400829994326   -8.24682968180060
C          -2.73444728715969    9.98954236564458   -6.86824140365402
C          -1.60741776419767   10.05858109187219   -6.08114746358432
C          -1.77714306419472   10.12147358410897   -4.68763228659511
C          -3.06672759211763   10.11397671056120   -4.14020522111388
C          -4.18914310686022   10.05685814467056   -4.95035028423640
C          -4.02307590837730    9.98857643377039   -6.31584557590350
C          -0.64479454217698   10.21585983396937   -3.79759443429208
C          -0.60315417922378   10.21379372621358   -2.41866306972864
C           0.77250795055566   10.35256621386902   -2.00340304523389
C           1.59540400665162   10.44392617087406   -3.20586674834261
O           2.78004103856696   10.56916187538948   -3.37926399900706
N           0.65357302254150   10.34668357075292   -4.23733420133067
C           0.78183623924403   10.34562576251546   -0.65223326990754
O          -0.46487784560557   10.21164851173063   -0.15921327635740
C          -1.38648669219920   10.12139556119929   -1.21001190815565
O          -2.56455935707397    9.99521261678165   -1.00219123782839
H          -4.95397736592607   -0.83730286783988   -7.10886501132571
H          -7.04450845181494    1.38215393432934   -4.10179591927571
H          -5.36748484008825    0.96727120761573   -8.75673438437651
H          -7.39984471022236    5.04854560738718   -8.56051938024793
H          -8.38981059684291    5.19412800466426   -6.24131483333507
H          -2.80552866776028   -2.43447173234882   -3.24839412928914
H          -7.59439865861133   -1.37746281417782   -4.02107730433479
H          -7.56604627238312   -4.85703658333242   -1.06920047551384
H          -5.12183737611720   -5.41148827824907   -0.70321792295347
H          -0.64956269020107    0.74708111643420   -6.69779576107809
H          -1.95840897898171    3.29573416198703   -6.92601209553222
H          -4.36057945437980    3.17729992679111   -5.03188401347038
H          -5.50068786559925    5.14834128444669   -4.56026816527546
H          -3.84096174527215    7.15048772184435   -8.79236988903107
H          -2.94505419033932    5.00364236904512   -7.99423861776027
H          -6.49561914128643    8.60354551564794   -8.28147158699157
H          -7.57589927032762    6.28606570060234   -4.10769878069617
H          -8.20476426708291    7.95307246102733   -4.14342960946567
H          -5.48953893401336    7.18002876291608   -2.95067819126923
H          -6.96832841551881    7.40249911720417   -2.00965057865073
H          -6.26056267818315    8.76436386690232   -2.87313803920972
H          -5.68142310062323   10.76929553754970   -7.45881713921624
H          -2.04679536192090    9.91596395881733   -8.87793475014328
H          -0.62931105284660   10.05729744663884   -6.53669502866495
H          -3.18544855865595   10.16018094355543   -3.07022773573258
H          -5.17613092760787   10.07862216768309   -4.51795825524709
H           0.92821170828273   10.39600566268025   -5.20536029859866
H           1.57803249957311   10.42569238048162    0.06400484096037
