70
 SCF done       -120.732249040493          0.000415456397
C           0.58515370607033   -1.73475208376138    0.42776382845858
C          -0.59162799956397   -1.45756110706724    0.53031581489177
C          -1.90959989854627   -1.02231218298522    0.55268002395250
C          -3.06803508600165   -1.73976120371364    0.38730746361982
C          -4.21209527389642   -0.92776877337180    0.32693607473811
C          -3.93753983122702    0.40914812236342    0.42002528229228
C          -4.84704043125744    1.53828345153080    0.23430869034448
C          -5.97548104303165    1.65823638230581    1.00571314235828
C          -6.81767503874637    2.77765407265997    0.87026970970190
N          -7.92576478398803    2.88175332734199    1.63285759327370
C          -8.65127153301108    3.95773452396420    1.48493302097442
C          -8.30626436231824    4.97633259597075    0.57256207638600
N          -7.24406544401136    4.90250211981919   -0.18360730570365
C          -6.47300769176923    3.80225626272486   -0.05626288480844
C          -5.32351178370686    3.65428127855523   -0.85421971781442
C          -4.53503056332888    2.53693367239965   -0.74554727393470
C          -3.36733465838675    2.32764364913347   -1.60246587465249
C          -3.17354701725302    1.16977432764783   -2.25399399095821
C          -1.95350642915717    0.73940658601339   -2.77748825700442
C          -0.90215193653704    0.17539762104689   -2.99910697044036
C           0.30661341921792   -0.48152385841354   -3.17413696885738
C           0.51596847140343   -1.72300067361463   -3.72991355812847
C           1.85124056921155   -2.12958400054176   -3.67497075942613
C           2.68489205842596   -1.21595588273820   -3.07281845679343
C           4.10831736169193   -1.31220330590886   -2.84869552612864
C           4.75301728092883   -0.37779144330026   -1.99867735711928
C           6.09073199472201   -0.43991044071194   -1.75100747544569
C           6.87175030950811   -1.45135695737911   -2.34699892022974
N           8.19166629310259   -1.52876460088232   -2.08865592843352
C           8.85935594644463   -2.48136454801930   -2.68121572206595
C           8.24317262122646   -3.38573949739526   -3.57149497123016
N           6.96597411808928   -3.34613172663601   -3.83388776322887
C           6.24167329130917   -2.38349242109688   -3.21835375863240
C           4.86144595662746   -2.30029224739497   -3.45163968145279
S           1.79117543566697    0.18621224781126   -2.56050940967073
S          -2.24316409871739    0.68471930317796    0.69097119550308
C           1.93479190799746   -2.06603582663987    0.31589885189353
C           2.37109280569861   -3.17468977051880   -0.31053524994294
C           3.74914956502485   -3.58331632837627   -0.46542085201224
C           4.81459620251531   -2.93174936393928    0.20899051183397
C           6.10561872670732   -3.34445466038502    0.07301255633168
C           6.41515520009704   -4.43988789750136   -0.75984202954875
N           7.69091525765757   -4.85311975591664   -0.88890083076107
C           7.90856965780897   -5.87157428574283   -1.67943118671395
C           6.86749859527271   -6.51655630226442   -2.37687032744957
N           5.62147860760614   -6.14553819335360   -2.26704755337086
C           5.36094314704810   -5.09861125536778   -1.45401664051705
C           4.04029965321258   -4.65704546806487   -1.28452571194504
H          -3.08235020537088   -2.81054936812262    0.29003198155779
H          -5.20528556313442   -1.30855057741002    0.16407410259593
H          -6.22526194613325    0.91460359002931    1.74693303003860
H          -9.53831498847390    4.03302574948953    2.09975459095499
H          -8.91766457557902    5.86246952590799    0.46514250215580
H          -5.09680914902085    4.42696388983523   -1.57302785522038
H          -2.62269539072273    3.11111879608992   -1.63546536982630
H          -3.96582551312013    0.42914625671101   -2.28401103444931
H          -0.27917413341572   -2.30698767127494   -4.15784826938977
H           2.19152063809730   -3.07582017350665   -4.05440773984194
H           4.15343636412198    0.39623565036180   -1.54032547644292
H           6.58222231756970    0.26696142696246   -1.10105370873198
H           9.91611010922444   -2.54525605829625   -2.46148138430614
H           8.81651340604443   -4.15403977316195   -4.07416784947207
H           4.42446688758023   -3.02308366144888   -4.12104149445986
H           2.62111043602501   -1.34962847246262    0.74876429122592
H           1.63659052989063   -3.83319122474245   -0.75696295727609
H           4.59571036400540   -2.09807918585847    0.85809043339579
H           6.91652913347839   -2.85384722288848    0.58879985994878
H           8.93571412964850   -6.19917911942655   -1.77367356366057
H           7.06929127685452   -7.35342403434703   -3.03245862239260
H           3.25953261666380   -5.18142182415152   -1.81470238889771
