69
 SCF done       -118.044445798387          0.000977603269
C          -3.18282205781735   -2.08721201650692    2.07368151198418
C          -2.51865087728479   -3.00686253889644    1.21999032472120
C          -1.21107753680517   -3.35376975633438    1.50153064385058
C          -0.55173200139636   -2.80536859173232    2.61196997874324
C          -1.23125082176805   -1.88247487876973    3.45739807335251
C          -2.56647173061087   -1.53971071637101    3.15751692100841
N          -0.61527960731718   -1.34065760024008    4.52573918767071
C           0.62180840081568   -1.69988956612008    4.74634694954042
C           1.29608031240594   -2.61583372451888    3.91253930905563
N           0.72827078078800   -3.15795676735573    2.86982742151327
C          -3.21385125609418   -3.55623167781963    0.07979112387476
S          -4.83473847343161   -3.04864635325897   -0.30444329896022
C          -4.88494479686969   -4.10193515833652   -1.69096543400693
C          -3.70312583015315   -4.79678655022421   -1.82466595151387
C          -2.77089856476969   -4.48807748667131   -0.83203240552000
C          -6.01113817879386   -4.15391121350612   -2.49532700913112
C          -7.01643816629089   -4.15920383333935   -3.17705301509607
C          -8.15494434136148   -4.16566602967820   -3.97337957414952
C          -9.23273693710986   -3.39771877974988   -3.69077431164457
C         -10.42156056917607   -3.33453561758463   -4.46858428890459
S         -11.71003256203407   -2.27892157641396   -3.95757618288347
C         -12.68369886214174   -2.73512100445659   -5.32952105442460
C         -12.02366423178344   -3.65528640087519   -6.11930868025940
C         -10.76034331317052   -3.98989737318637   -5.63681882532386
C         -13.93878438724752   -2.18574973021571   -5.52170524935734
C         -15.03011007521459   -1.66842153262924   -5.65776959780864
C         -16.26958547978597   -1.06617900102550   -5.82064929425514
C         -17.08639567491335   -1.29194972636010   -6.87470049897389
C         -18.34728852557557   -0.66245050889746   -7.05763427472745
S         -18.98522951761473    0.48623202152690   -5.91236878799797
C         -20.41537039384569    0.71906325960717   -6.88533944971904
C         -20.37543622643325   -0.06076453400771   -8.02151210157224
C         -19.21852296295767   -0.83343583095999   -8.11510784840074
C         -21.39988239666762    1.60569642220261   -6.48334091011091
C         -22.22770335663503    2.40381012566925   -6.09239959904929
C         -23.18605856011994    3.32420714541179   -5.67825424057593
C         -23.09400584760499    3.98131087601134   -4.50457783317409
C         -24.02964898926760    4.95898770078524   -3.99780705421362
C         -23.83003122838779    5.44945897118937   -2.67919911405035
C         -24.65953965891024    6.37428046840146   -2.12052341234716
C         -25.75144704478027    6.87645919617772   -2.85919505114882
C         -25.96472615507119    6.39941006122947   -4.18443840316928
C         -25.09551947705836    5.44363652342880   -4.73166105627274
N         -26.99891339944511    6.86323807930523   -4.92238770048986
C         -27.77575442897138    7.75237449083552   -4.36624594979065
C         -27.56384622490608    8.22097963892462   -3.05300134135891
N         -26.57404281005832    7.79389306274576   -2.31423138398395
H          -4.20596246971090   -1.82291639019359    1.84660820508109
H          -0.65833250172016   -4.04413374188838    0.88557369852674
H          -3.07223149855119   -0.84081204725723    3.80520616265680
H           1.10995675658090   -1.25903114964690    5.60528930117744
H           2.32010300009125   -2.90379566043790    4.11174481574751
H          -3.53176538374440   -5.50105486046499   -2.61925241145388
H          -1.79770324102022   -4.94205685799575   -0.78686997366591
H          -8.13765751946323   -4.81187807321705   -4.84078844101399
H          -9.20522624939606   -2.76874184241797   -2.81042815368859
H         -12.45848088569828   -4.06135578578044   -7.01551347065371
H         -10.10903751300356   -4.69064124514012   -6.12772456651837
H         -16.56984901063977   -0.37316439808773   -5.04289805697740
H         -16.78430171641385   -1.98493475984170   -7.64926256244983
H         -21.16588815863092   -0.05933857328426   -8.75099828720825
H         -19.01152350030340   -1.50200575158685   -8.93227824988491
H         -24.01711842923038    3.48012029504543   -6.35349004580876
H         -22.24832284517147    3.76386603123649   -3.86368701058907
H         -22.99300108953186    5.06627293885015   -2.11268323027592
H         -24.50846843775616    6.74451334218983   -1.11842863726785
H         -25.29084028261153    5.11837933076900   -5.74112392342229
H         -28.60038605043396    8.11825120172732   -4.96366054124606
H         -28.21977892998731    8.95720602982371   -2.60765588198456
