95
 SCF done       -154.700853203858          0.000772412281
C         -19.08968691253111    2.04969453835393   10.14867333635877
C         -19.51901183188999    2.32266780671742    8.82261265095587
C         -20.61254672645004    3.14539875518288    8.63218068135650
C         -21.29200508354750    3.70228970369360    9.72489974931814
C         -20.85001518373434    3.41852536504075   11.04871188427704
C         -19.73134545407964    2.57823797567736   11.22800543499552
N         -21.48458151960580    3.94026462076159   12.11651410713879
C         -22.51444644205953    4.70930501567055   11.88002755026526
C         -22.95487238407844    4.99066938175484   10.56992736505284
N         -22.36204100064141    4.50229904475107    9.51500711649626
C         -18.82382571525388    1.74664411876320    7.69622674879623
S         -19.33169756926063    2.10910563330028    6.06988802875389
C         -18.08014776003320    1.09528144285214    5.40508455240071
C         -17.32746782642866    0.52091162427674    6.40547774733304
C         -17.74652175306967    0.88926728879605    7.68568519979608
C         -17.94266538746971    0.94917163947004    4.03487308708535
C         -17.85470671551949    0.84318503886100    2.82785591997322
C         -17.74858907440726    0.72080376046048    1.44882456437548
C         -18.54817616899232    1.40163185634882    0.59567102407303
C         -18.48218729796693    1.32183920508047   -0.81979288184274
S         -17.35122420102417    0.28713091251135   -1.65224702209848
C         -17.94285219547259    0.82509743857437   -3.20257495505044
C         -18.95977823698840    1.74775198959727   -3.05356015322982
C         -19.25991000117199    2.02177400691601   -1.72201135842573
C         -17.40942803350588    0.35323850630956   -4.38730395336956
C         -16.92939451484372   -0.05542126684791   -5.42733224231825
C         -16.40663059785641   -0.48069685010756   -6.63878796608885
C         -16.76415074834202    0.09038494245951   -7.81674402830276
C         -16.23226844546069   -0.30578580903479   -9.07807660039242
C         -16.52939245472080    0.30082636950393  -10.27605513885399
O         -15.95885178136507   -0.10218464715896  -11.47060234651704
C         -15.09015437588268   -1.14521085891011  -11.39030267991198
C         -14.78801398609672   -1.77991881760437  -10.15094996418469
C         -13.90422536005339   -2.79914164262451  -10.28287633131276
S         -13.42421919891953   -3.00104873652678  -11.92822396814927
C         -14.42911343975784   -1.69498860239866  -12.43839691667363
O         -15.34876129255120   -1.37325227925756   -8.98161496534034
C         -17.43303368244733    1.39796600216054  -10.42401191082317
C         -17.62730899922975    2.04524316681366  -11.59609655343914
C         -18.50894490961167    3.15758706607832  -11.82137281603086
C         -18.44300163371597    3.82303714987965  -13.02618327021497
C         -19.26928576800784    4.93639200789143  -13.27563746710716
C         -19.36721822175709    5.77327533328269  -14.37685369672833
C         -18.54629327346817    5.69412177951616  -15.62184896394590
C         -19.40089912425801    5.67511615404684  -16.90100352655024
N         -18.73381542102472    4.87958618312614  -17.91728351178257
C         -17.51109633873705    6.83353696497840  -15.65144952171579
N         -16.50256827759936    6.59170903910178  -14.63583758219197
C         -20.36933788390617    6.76383839240280  -14.05957387406254
C         -20.84765574211263    7.81764666575946  -14.74795981209650
C         -21.87385296601470    8.73444366136094  -14.17659340145759
C         -22.39248062673580    8.33105615379479  -12.83328485469053
C         -21.90680541012251    7.27747385755409  -12.15302089350830
C         -20.88714790124082    6.46955624686282  -12.71207983392700
C         -20.20967120565811    5.36434767380123  -12.24671082101098
C         -20.27412739847994    4.64843170702527  -11.02678271020630
C         -19.45164156904896    3.59129595506132  -10.82560222250588
C         -21.25743470349807   10.11408149086085  -14.06519600680324
C         -21.67790128912108   11.17539105476492  -14.72528878731550
H         -18.23521725780839    1.40951531955618   10.30132748232893
H         -20.97109739011921    3.37792181569618    7.64044946398682
H         -19.40611490263479    2.37220832710137   12.23593843900461
H         -23.01843615883408    5.12547587079460   12.74221752201746
H         -23.81095209013285    5.62884550340119   10.39354336847221
H         -16.50365128119728   -0.14056040936243    6.20442271507017
H         -17.26544863999042    0.52732540010053    8.57645306375346
H         -16.98768916985767    0.04927189506952    1.06947398700492
H         -19.30105110922743    2.06952480234583    0.99480099223418
H         -19.45641186344037    2.19604938588091   -3.89568344909206
H         -20.02213211139705    2.71426183417312   -1.41037167241680
H         -15.68408565711012   -1.28434167855336   -6.61311525007367
H         -17.47823986940271    0.89704142317067   -7.80215659503907
H         -13.51150164475517   -3.43663787741850   -9.51900748679739
H         -14.47398375505294   -1.41222676074349  -13.46900860470405
H         -17.95955988529798    1.70704805895180   -9.53786939059074
H         -17.05112266825608    1.72583393713174  -12.45402418774802
H         -17.73796283048516    3.50317473040007  -13.77950009788104
H         -17.98777874797095    4.75450937701651  -15.60458750740707
H         -19.60669929281954    6.70826937571486  -17.22944134571928
H         -20.35929100710741    5.19319996452283  -16.68741615716885
H         -17.83222345772899    5.28378659942954  -18.14740494246705
H         -19.28686798076031    4.84613773595071  -18.76638494482317
H         -18.03301766281013    7.79944502287750  -15.53031609103525
H         -17.00065348832635    6.84485309122294  -16.61990370786484
H         -16.94292609658460    6.51062166724267  -13.72472213025682
H         -15.83898482719958    7.35737583842171  -14.59810623081340
H         -20.48905023415914    8.07302930908107  -15.73504151275834
H         -22.71160140983926    8.80337917079335  -14.88445718459413
H         -23.16734360404691    8.95978048814304  -12.42102598458972
H         -22.29408768114804    7.02636164986320  -11.17575221340929
H         -20.98068842176051    4.95447371581089  -10.26852190509107
H         -19.51071043865099    3.04224790392726   -9.89881903486417
H         -20.42618669283904   10.17535275722253  -13.37624642296620
H         -22.50758078608958   11.13119356609846  -15.41219172616380
H         -21.21160086804868   12.13847901165660  -14.60386249619679
