79
 SCF done       -160.476037093224          0.000390600382
C          -5.90655125792315   -4.94023596441726   -4.51038275086383
C          -5.72207306275956   -3.56225312627761   -4.22231423673249
C          -5.48540828577051   -2.67294810309677   -5.24762029161736
C          -5.42284190739071   -3.13564032651944   -6.57402630493274
C          -5.59657191019299   -4.52075490087111   -6.85354130225455
C          -5.83855428178349   -5.41072083452005   -5.78690947372302
N          -5.54489534192029   -4.98107429458526   -8.11996810682005
C          -5.34091032711200   -4.10356100256026   -9.06553224553192
C          -5.18922615163949   -2.72789263899178   -8.79212754647562
N          -5.22789124725232   -2.25300369159807   -7.57726896276031
C          -5.84978064038274   -3.15146204408173   -2.83635087337739
O          -6.51713565063216   -3.97140687320524   -2.01423982078269
C          -6.54346630716918   -3.43909167061887   -0.77374213287928
C          -5.86401548801398   -2.23923187606863   -0.78279069319959
C          -5.41886518920120   -2.05097230107662   -2.10888455600972
C          -4.60901315875068   -0.89150503905417   -2.56316835474056
F          -5.31138585794266   -0.01652474033465   -3.31324107411952
F          -4.12853823745684   -0.18478113012848   -1.52964168325912
F          -3.54622006922603   -1.24739915202850   -3.30553077348891
C          -7.24762224813859   -4.19000397124087    0.21334802660263
C          -7.39740249928295   -3.90539972532805    1.52151921040452
C          -8.17351497470535   -4.78245177471914    2.34360692881769
N          -8.35372462297365   -4.67050465777401    3.70136690394868
C          -9.14936007392898   -5.67294800340008    4.16726124209613
C          -9.50603936320500   -6.46404826860555    3.09248573212548
C          -8.88646078934350   -5.89476062052255    1.95503920329372
S          -9.34066957003088   -6.85519155686409    0.53978199904443
O          -8.20262824975271   -7.52118206831756   -0.03826780222859
O         -10.17205047957097   -6.10168086372710   -0.36024173146194
C         -10.32813129609577   -8.00356251133815    1.53979203253153
C         -10.29707299027417   -7.63942677711362    2.84019342158990
C         -10.91695579453899   -9.03653130722854    0.78055200426885
C         -11.65409286681747  -10.10079978950094    1.18375857866947
C         -12.11673448658810  -11.03862181814374    0.22037946039580
O         -11.83707362927893  -10.83281085924403   -1.08079983873116
C         -12.34320631759763  -11.85483358208740   -1.80834413901566
C         -12.97437775728969  -12.75296383180754   -0.95826296600195
C         -12.83202730585989  -12.22876682192475    0.33592421640940
C         -13.33713524666840  -12.81603879662210    1.60067656489452
F         -12.35177539131734  -13.07300954749109    2.48598844071198
F         -14.19402910849315  -11.99877468171814    2.24786478005706
F         -13.98648438245335  -13.97128091249659    1.41135235820258
C         -12.16332374285702  -11.85091060019621   -3.21411932144443
C         -11.55591436884724  -10.80924439400002   -3.85352601687048
C         -11.32101140425882  -10.72327989512771   -5.23319294288962
C         -10.76187049657780   -9.62348828672914   -5.83825606643299
C         -10.48707058704237   -9.45979463644859   -7.22109914016079
C          -9.96644607994355   -8.24808759420009   -7.54951579640770
C          -9.80472515519324   -7.37304540286155   -6.44608985151056
S         -10.30744603265170   -8.16768359217108   -4.96622665665123
C          -9.37169415358201   -6.06673698923859   -6.46283001378795
C          -8.98724100554559   -5.30293801796241   -7.60162191416594
C          -8.67461809641180   -4.01786373007006   -7.32731058370354
C          -8.77972632999362   -3.66624667369567   -5.94018121110070
S          -9.28956773770494   -5.08568437897943   -5.01455045405988
C          -8.54297952027593   -2.47220239975633   -5.37937407607385
H          -6.10804896258232   -5.61282526387538   -3.69119402514179
H          -5.36897729720043   -1.61492786439359   -5.08707307859798
H          -5.97761147541859   -6.45605263995788   -6.01425997941443
H          -5.29682410584150   -4.48178977652269  -10.07831778569064
H          -5.03637663466543   -2.01177869197888   -9.58871197870534
H          -5.69628008673384   -1.57531527023420    0.03936108922025
H          -7.70281800663202   -5.08870395079631   -0.18006086153339
H          -6.95113082920145   -3.03199878109532    1.97435380566423
H          -7.94697539266368   -3.94724494172052    4.27339392026756
H          -9.40048932039870   -5.75008492921954    5.20618485385062
H         -10.81088559869074   -8.15977541582173    3.63248763506976
H         -10.71433318824515   -8.94105111592563   -0.27914204094740
H         -11.89800276788063  -10.28122886862178    2.21865802826437
H         -13.47217213917709  -13.66068297740848   -1.23001241599938
H         -12.53349417891982  -12.70586597693721   -3.75894592795983
H         -11.22913094880888   -9.96980298729820   -3.25280984421039
H         -11.59672513244375  -11.55907581230349   -5.86257723810520
H         -10.68960303840341  -10.24681755173100   -7.92628514412080
H          -9.70218931614754   -7.95412257385077   -8.54938668501318
H          -8.96010440771567   -5.73571271914436   -8.58550885159196
H          -8.37601879401092   -3.28555734049096   -8.05698239719684
H          -8.23968741135463   -1.63184616108849   -5.97812144855598
H          -8.65822243896192   -2.31341934081618   -4.32271902732964
