72
 SCF done       -155.410810795153          0.000901804571
C          -4.15595163392406   -0.38033345292576   -0.12582805300739
C          -3.76596275898189   -1.27409773051936   -1.15694254122894
C          -2.56394206655563   -1.09159774962250   -1.80574738649370
C          -1.73733996899717   -0.00944097755917   -1.45590143838855
C          -2.14420935792547    0.89347584852945   -0.43376165144532
C          -3.37206389066706    0.67715906240367    0.22606885435626
N          -1.36743871568559    1.94129863381170   -0.09013978939168
C          -0.23628158033592    2.07943501449022   -0.72667382433706
C           0.17535091110464    1.17545939593139   -1.73082112100160
N          -0.55522486094955    0.15665696536249   -2.08910150426500
C          -4.65696010356178   -2.37665036828952   -1.46968429008640
O          -5.51005364022418   -2.78807857308634   -0.51844131500230
C          -6.24783940215716   -3.81200054638988   -1.00495962258950
C          -5.87516769646743   -4.06459316864187   -2.30799220009223
C          -4.85274599480636   -3.14222152747147   -2.60961367015983
C          -4.19389892041453   -3.02632335359524   -3.93737207205319
F          -4.08412865263068   -1.75519248312567   -4.35929040009653
F          -2.94752326056044   -3.53890562799020   -3.95700282129752
F          -4.87717806882689   -3.68300846878731   -4.88574818990946
C          -7.22610803220051   -4.45265458760872   -0.18926415651407
C          -7.49087558562265   -4.08522125390022    1.08283790879111
C          -8.45772615817244   -4.72896142967341    1.90627604229712
O          -9.16754587838797   -5.78358918923082    1.46892788724121
C          -9.99681354279059   -6.18760486729864    2.46175542384889
C          -9.82453761952357   -5.37599210986106    3.56906614792716
C          -8.83882362405446   -4.44271226709149    3.21426469146826
C          -8.29279317400221   -3.35202283950374    4.06209012309935
F          -8.45930868191246   -2.13486850132025    3.50668192834864
F          -8.86651647870923   -3.30405408790712    5.26828244197539
F          -6.96669725513001   -3.47495023844631    4.26942348850498
C         -10.84191296310256   -7.30861923306092    2.22557320720275
C         -11.71311957921397   -7.80904632992804    3.12888342106877
C         -12.53857873509257   -8.94124510607172    2.87819443399276
O         -12.49396966687696   -9.60006654101515    1.70492551753428
C         -13.37201068717678  -10.62874025412838    1.75695749912595
C         -14.00252202839857  -10.64144914882616    2.98611819742975
C         -13.46998492405466   -9.55928941435304    3.70607201238420
C         -13.82220110192109   -9.14349009127558    5.08715217150781
F         -12.76849991075537   -9.19681690730793    5.92704490706552
F         -14.26696977893770   -7.87208685938163    5.14646548750233
F         -14.77823097130368   -9.90909170941937    5.62429093042483
C         -13.53841028297445  -11.50902117554731    0.64386509076345
C         -12.86572648778874  -11.37386728842697   -0.51453441777909
C         -12.97510224272328  -12.21502808255444   -1.68471524510673
C         -13.81091305335257  -13.36183318686814   -1.72399205079134
C         -13.90082014548470  -14.14106231782805   -2.83825446313631
C         -13.15579626715352  -13.81855923034176   -3.99231894934824
C         -12.31153451731226  -12.67287561131860   -3.97032794392285
C         -12.23693406221096  -11.89048506883865   -2.80756181107332
N         -11.58350278952125  -12.33380630908301   -5.05802653774799
C         -11.69391696704520  -13.09817176796063   -6.10944647409796
C         -12.53096913134212  -14.23452695162869   -6.12904799900917
N         -13.24613207367821  -14.58840962867603   -5.09509601420378
H          -5.09744394127134   -0.55196310686423    0.37256208194513
H          -2.20280244612569   -1.76426677577496   -2.56514533974711
H          -3.66126176071824    1.36484880497318    1.00432737695741
H           0.37872183390569    2.92416651780481   -0.44671884813042
H           1.12082604070510    1.29909435329331   -2.24209680518125
H          -6.27988456241039   -4.80323063381363   -2.96836906718528
H          -7.76071922591675   -5.27157561603044   -0.64600757414293
H          -6.95458359274902   -3.26308389721279    1.53202997070541
H         -10.33187233568618   -5.43896766594848    4.50884461899796
H         -10.75207565605920   -7.76813353061266    1.25193013513782
H         -11.81707393081025   -7.35918359909472    4.10362789730033
H         -14.74634082182922  -11.33166130297110    3.32636237955655
H         -14.25609643308383  -12.29886151180543    0.80306907827181
H         -12.16791259368651  -10.55132982328728   -0.60058592310033
H         -14.38470184911335  -13.62317777290263   -0.84926832397325
H         -14.53335210579501  -15.01412637967541   -2.87111730507213
H         -11.58842244262252  -11.02777105159857   -2.81996175325513
H         -11.10906109819138  -12.81998378303957   -6.97631606170667
H         -12.60904901804096  -14.85700453229341   -7.01030639769566
