78
 SCF done       -171.675654805094          0.000680023898
C          -3.26058883595298   -2.35321815131907   -2.42373966406684
C          -3.69645952939342   -3.14860353725693   -1.33597138171631
C          -3.11165656574703   -2.99250898991294   -0.09483298450907
C          -2.07661756135783   -2.06283103868430    0.08862271074438
C          -1.63543454750939   -1.27518175640064   -1.01334255796330
C          -2.25627192425147   -1.44282618120224   -2.26805971905336
N          -0.64571484791762   -0.37318148016981   -0.85859692467821
C          -0.11612246459072   -0.25957150403979    0.32845849820179
C          -0.55011491661130   -1.04329438272937    1.42045636587520
N          -1.50596899520512   -1.92178460785427    1.30474724023448
C          -4.77465591144014   -4.11163489969877   -1.47573296610561
O          -5.45406113395075   -4.43832119483086   -0.36590746925810
C          -6.40444717799585   -5.34657299397912   -0.68683706300901
C          -6.33740968238510   -5.62795577953522   -2.03550185408619
C          -5.28773379811467   -4.83453967617095   -2.54391624770000
C          -4.81934602044409   -4.86023895311882   -3.95498273249785
F          -3.47604001774062   -4.89590023853775   -4.05731102598433
F          -5.27729852083208   -5.92527396700511   -4.61791266710478
F          -5.21148248759201   -3.77836704294845   -4.66225495217500
C          -7.27450377720224   -5.85484572811646    0.32165830792910
C          -7.19883896476978   -5.48036249963498    1.61730916994346
C          -8.06637925045332   -5.99029642560774    2.62641766382236
O          -9.02229826720296   -6.88015587721704    2.32810105393792
C          -9.69366171692969   -7.19735331709439    3.45879340949464
C          -9.16112733641308   -6.49414745142848    4.52340561951417
C          -8.11724717721925   -5.71810338838036    3.99138325096111
C          -7.22729938491511   -4.79385444361456    4.73780699727311
F          -5.93838390699832   -5.18820822137455    4.72207119098038
F          -7.23064264685666   -3.54491283105359    4.23374461123597
F          -7.57330996889511   -4.68439042009632    6.02766114643033
C         -10.75321871898662   -8.14028740990646    3.33431557924216
C         -11.54441872282986   -8.60228289038449    4.32366353715298
C         -12.57045976082426   -9.55419973732067    4.03486344042628
N         -13.42818776169517  -10.10038881218960    4.96183082376314
C         -14.28830927975085  -10.97262599439618    4.37286067548940
C         -13.99335018247367  -11.00462599311200    3.02279155206273
C         -12.91360757352025  -10.11106306345870    2.82328217342148
S         -12.49578695816606  -10.10650674160478    1.10131206278633
O         -11.18582315343771  -10.65955660798184    0.88690057052750
O         -12.77465331569425   -8.82651263405605    0.50816485173465
C         -13.80276238915158  -11.31761948226537    0.71094600800478
C         -14.46673303429388  -11.66019098427196    1.83902275306298
C         -13.98045241461270  -11.73039848424592   -0.62807524441581
C         -13.18273432069113  -11.23674368731483   -1.60807993067798
C         -13.25842400741825  -11.54415582438346   -2.99610155082190
C         -12.34723748950075  -10.91818086080150   -3.88654413316373
C         -12.37498813601068  -11.16770783982141   -5.30766186712396
N         -11.49316835954566  -10.54180513571885   -6.12043042703906
C         -10.62667738440481   -9.72051987214532   -5.59528480610461
C         -10.59437235461339   -9.47684623159825   -4.17543014102804
N         -11.44096298303915  -10.07114610902622   -3.37521817355194
C          -9.63741688963242   -8.58485323351573   -3.63020667728934
N          -8.84891828344193   -7.85615291626722   -3.22910868468339
C          -9.70206058225812   -9.05619042919543   -6.44336179413321
N          -8.94555645653323   -8.50337610080608   -7.10114469098548
C         -13.29646953860427  -12.04209828014519   -5.87219364159604
C         -14.19411245097354  -12.67009796054351   -5.01765788337676
C         -14.18470953115709  -12.42962527776894   -3.58659301725307
N         -15.13497444048982  -13.13769322463498   -2.96849508033197
S         -15.93912412083505  -13.99922990732884   -4.05673508457459
N         -15.15095897725141  -13.54096373595638   -5.36729506265435
H          -3.74439645646406   -2.44683665839904   -3.38108659911173
H          -3.42874912802857   -3.58167995055901    0.75089783103714
H          -1.91983393087817   -0.82880371922054   -3.08831302973981
H           0.67628226011299    0.46814987518928    0.44096246438748
H          -0.09981173693819   -0.93912566191722    2.39855435739159
H          -6.95309325620947   -6.31150877670745   -2.58511499717165
H          -8.01321767187892   -6.57095375593677   -0.00514372217805
H          -6.45862337121094   -4.76246911906376    1.93729090498842
H          -9.47160542689686   -6.52402684888519    5.54693895949202
H         -10.90664809083880   -8.50058009277281    2.32633877447524
H         -11.42779304704431   -8.27242302897650    5.34569696380459
H         -13.41548535201277   -9.87952819807294    5.94527343983742
H         -15.03214043917278  -11.49685126426888    4.93879202871087
H         -15.28540124289581  -12.36277010886034    1.86421489693276
H         -14.76511623520893  -12.43953247447496   -0.85983449479968
H         -12.40626935499241  -10.53224705285366   -1.34510607926590
H         -13.30713061051530  -12.21832072374233   -6.93414486216917
