82
 SCF done       -167.802544024708          0.000653523930
C          -0.05468739297855   -1.10050523280888    0.29341170480211
C          -0.91666575198138   -1.44935623901712   -0.77915975862192
C          -0.61911892624746   -1.03100621537667   -2.05866161425214
C           0.53536252915912   -0.26836798613111   -2.30307029471380
C           1.39742945621412    0.07271778958702   -1.22266540849004
C           1.07016485370383   -0.36071521702483    0.08028966737471
N           2.51329761757457    0.79711714702379   -1.43828063817268
C           2.76147658216960    1.16347483122312   -2.66697362841774
C           1.90685956104198    0.82649073486877   -3.73751550721851
N           0.81772424161027    0.12773279169157   -3.56412845014828
C          -2.07770859292745   -2.25960593926141   -0.48086227491239
N          -3.04402952867823   -2.60225331240940   -1.39719520083214
C          -3.99175907669794   -3.39218109037990   -0.83174360419329
C          -3.64152034444013   -3.58144913812784    0.48971274220497
C          -2.43919307251364   -2.85991752772359    0.70232565003034
S          -1.97074888982790   -3.08238933480662    2.40484486799068
O          -2.06611780475409   -1.84988463676939    3.13564876657119
O          -0.74221015518799   -3.82130628198000    2.51418527238179
C          -3.39183413917669   -4.16976829442015    2.73796015331250
C          -4.14379547037733   -4.29984456710740    1.62280652574404
C          -3.48611841670555   -4.74260582357827    4.02780249744591
C          -4.23116685732940   -5.83808985247282    4.32174188069394
C          -4.30408836884436   -6.51211977599062    5.57431741996009
C          -3.82316381488706   -6.02322307394871    6.81402852603519
C          -3.84100173250642   -6.83432122540368    8.00883917301826
N          -3.17225252097458   -6.42530487468187    9.09706394715588
C          -2.63652593361805   -5.23247798621211    9.11515768586592
C          -2.82973374778727   -4.33713062627665    8.00914721512144
N          -3.36998439226340   -4.76396697584697    6.89664604347006
C          -2.42804889008754   -2.98263128523199    8.11995945071374
N          -2.08777375372205   -1.89818826331233    8.26103579913383
C          -1.85924818491659   -4.82636326801135   10.22823959533191
N          -1.21608647571055   -4.45186544595909   11.09869470006326
C          -4.45970848252236   -8.10105769393226    8.04510946297110
C          -4.95652337154965   -8.58855166260263    6.81889534758023
C          -4.88096644021415   -7.80218351522455    5.61150205268024
N          -5.40803520280934   -8.45069155680173    4.56972574830017
S          -5.94060796159743   -9.88350931563164    5.05982608993550
N          -5.54077136161212   -9.76898846372292    6.60811637958664
C          -4.53322978684084   -8.91541372488067    9.21827875323013
O          -4.55520316665210  -10.24482000187990    9.03555821086725
C          -4.64780594094291  -10.85537725764254   10.23605820953940
C          -4.70187620568980   -9.88985972104740   11.23224729483178
C          -4.63279730274369   -8.64791984768347   10.58443999462213
C          -4.79645750465452   -7.34944689646520   11.29418908875325
F          -5.38693880657591   -6.40273637363436   10.54469678320078
F          -5.58785358311265   -7.50041759404709   12.37520149453904
F          -3.65150494557068   -6.83005340444667   11.75690723065756
C          -4.68320322112055  -12.26804779945600   10.29277091074983
C          -4.69605557705931  -13.02367210680607    9.15530658397755
C          -4.71182721132779  -14.42307397500547    9.11302012271798
C          -4.73216974117641  -15.14051991198039    7.94097212760392
C          -4.72474290918758  -16.55067327724861    7.79653158099754
C          -4.74014954310944  -16.98272467442923    6.50713976150954
C          -4.76523856172820  -15.93680338170050    5.55206497259466
S          -4.76651145063886  -14.38083089683891    6.35877570991405
C          -4.78628086437404  -16.04321078783518    4.18018982931319
C          -4.77821275454337  -17.23715684161918    3.40511206121993
C          -4.80086539200801  -17.03364060707604    2.06955065680934
C          -4.83098707306217  -15.65247885259937    1.68098478131237
S          -4.82616299856837  -14.64004271029957    3.13496025500752
C          -4.85762168759012  -15.14918169387274    0.43958933461101
H          -0.30930897159360   -1.43478601736486    1.28716040962311
H          -1.23513491287735   -1.27356221515197   -2.91141376964136
H           1.73214428603561   -0.09247999278518    0.88803951068612
H           3.66047512324415    1.74289059456055   -2.82912254437816
H           2.12670102639138    1.13884162127096   -4.74985484508143
H          -3.05074405163756   -2.29370891736253   -2.35618342847166
H          -4.82730318585610   -3.75913270183471   -1.39365777177006
H          -5.05362686467894   -4.87669110925188    1.56760950600282
H          -2.86524767722744   -4.28400427642850    4.78345260991009
H          -4.78471523760262   -6.32669179238040    3.53034521205043
H          -4.79903563954772  -10.05285487067048   12.28593559571609
H          -4.70186336004054  -12.72241116645102   11.27158333394634
H          -4.69515766101793  -12.50042360489764    8.20707670689916
H          -4.70046739018206  -14.97616840387314   10.04271824080686
H          -4.70440394836356  -17.19870755018131    8.65500736655133
H          -4.73430260224582  -18.01776105808057    6.21626066116880
H          -4.75382360778421  -18.20636931980338    3.87051152565505
H          -4.79720583815794  -17.81196789338052    1.32743376070530
H          -4.85700245873518  -15.80020442587204   -0.41669816875834
H          -4.87588058587310  -14.09010615782189    0.25871235432599
