66
 SCF done       -136.313116730541          0.000963795776
C          -1.09147653553376    1.34707835646547    2.19690774166533
C          -0.60620367888024    0.12800157059685    2.60911407541084
C          -0.22563390683793   -0.11370007793021    4.02561897478855
O          -0.35375693798967    0.75753503566331    4.84314514212205
O           0.25223380573707   -1.30982875182926    4.36002238212916
C          -0.62783369369923   -0.63607316300873    1.38865623453420
N          -1.08421290511888    0.11278309335870    0.40618882892942
O          -1.36614411708549    1.32324569806205    0.90452296167140
C          -0.26059888635551   -1.99320630479398    1.09266649400550
O           0.29471944026468   -2.78747892161086    2.05430720289567
C          -0.35963869635242   -2.72243356259614   -0.06557333156106
C          -0.79956055654614   -2.69236985554892   -1.47417839491359
O          -1.29855600734639   -1.83015907643219   -2.13777188984867
N          -0.50352492814992   -3.97926644049085   -1.92868520933772
C           0.06761710373627   -4.83539591854872   -0.99512041621683
O           0.38795710091716   -5.97784687732225   -1.20011336402590
C           0.15819768948215   -4.01592501179782    0.21584135429648
C           0.55446138766459   -4.02455197774899    1.53620202958197
C           1.13201000794221   -5.01541858888414    2.37791645092573
C           1.39940834766689   -6.26516414440213    1.94956921350731
C           1.97251149213905   -7.29581111391991    2.78831051197753
C           2.17201896719111   -8.54371789929381    2.31583619101752
C           2.31572661877413   -6.96969900487071    4.11821649734670
C           2.62040692616231   -6.68899157027910    5.25786404543860
C           2.98431152756416   -6.42008363077037    6.57142953042023
C           3.40601055582794   -7.40505070293911    7.41020508386114
C           3.79783910461073   -7.19887605042172    8.74510716606271
C           4.20238264498211   -8.21469605131479    9.57368001961285
C           4.62591797066535   -8.11776342031565   10.92347544578315
C           4.96340146280964   -9.30907255482350   11.48980103594175
C           4.82071813826135  -10.41422318873648   10.61935668696203
S           4.25203245053585   -9.89264107280587    9.05284860893841
C           5.05755954728747  -11.75227334395423   10.87098087212321
C           5.51685552050979  -12.36852015130371   12.05563920205815
C           5.62903039479094  -13.72140370231981   11.95893477724006
C           5.26233928337335  -14.25107611921815   10.69217829873664
S           4.77562174917093  -12.94901887294068    9.62660453123474
C           5.28104447977159  -15.58211492611110   10.36204677917396
C           4.92205728360757  -16.17819070739428    9.13717977732133
S           5.01387336138254  -17.92869207110032    8.97853860562292
C           4.46449784555846  -17.94868318935076    7.35078131759338
C           4.21296277640334  -16.66821202912167    6.92079403847177
C           4.47138651803667  -15.68140287745978    7.92503535855082
O           4.21048606008610  -14.44575735261531    7.44703039439833
C           3.79324499405281  -14.62671234616870    6.16794857274535
N           3.45052104927797  -13.47580295323730    5.42240076930479
O           3.07986364222971  -13.66170105570386    4.27672104096342
O           3.54252833697237  -12.39324570940444    5.96139104543415
C           3.76911846538413  -15.94073256770649    5.78266705795339
H          -1.26347616930630    2.25020662920077    2.74840023273758
H           0.31652956284992   -1.93056786323918    3.61298037239970
H          -0.69591616370437   -4.26848230497192   -2.87754091958649
H           1.34594374296449   -4.72038276603774    3.39618820429206
H           1.17582297300284   -6.54510035727356    0.92913389193558
H           1.91377875770500   -8.79866665882443    1.30264102799867
H           2.58951723512716   -9.31914187241930    2.93400389467679
H           2.92070892672492   -5.39292344298447    6.90813578781782
H           3.44614959888479   -8.42014775905820    7.03436697655221
H           3.78283040819476   -6.19285644779200    9.14422770338651
H           4.66708385904975   -7.16955634416250   11.43042797011723
H           5.30545109756224   -9.42482200174251   12.50281423921144
H           5.75032246080499  -11.80248726316146   12.93968255583866
H           5.96108253082717  -14.36402326209490   12.75517913669094
H           5.60460564281591  -16.26916665429339   11.13257204302946
H           4.36360799259064  -18.87549825830566    6.82672324847099
H           3.47513434257665  -16.31254221843016    4.82327389130518
