96
 SCF done       -156.750740770263          0.000460213986
C          -1.34629108723152   -0.26142449897372    0.76735390580970
S          -0.29783668375821    0.71749104289486   -0.16464662133199
C          -0.14573130106551    1.86890328565882    1.14439118509179
C          -0.87717885006059    1.46421551787568    2.24204997289746
C          -1.56755944440081    0.24572908686224    2.01162741763569
C          -2.45106770574983   -0.38116865557857    3.04036149879616
S          -3.92091198789043   -1.18335957903993    2.28155457719701
C          -2.86384749235400    0.64915888181151    4.08210195016975
C          -1.61558235613553    1.32171465779263    4.63416706654545
C          -0.91459700890919    2.17743140028454    3.57469901918173
O           0.37646876741718    2.44510007346442    4.08044571024806
C           0.60707756170653    3.06622168860234    0.93201514790218
S           0.15984896395152    4.56439323505767    1.70830422979171
C           1.39159867577192    5.45652104185878    0.85825855546401
C           2.08992687271421    4.60887536972814   -0.00385840355675
C           1.63419378338479    3.26796538573529    0.02284071206636
C           2.14998000085165    2.19308695952107   -0.82306153625878
C           2.30813198058216    2.30980582681916   -2.13357410533198
O           3.12619320660683    5.09996744058110   -0.73295369848103
C           4.31102985439658    4.33598727149005   -0.84959184424020
C           1.55926337067708    6.83452979708964    1.12160137851009
C           2.38941723013402    7.65372095409526    0.41251587542937
C           2.62750935189210    9.00600278178101    0.69120204380671
C           3.50095558737123    9.76255891916872   -0.05509380642619
C           3.87375479915405   11.11530973354418    0.12351151589534
C           4.79017808843318   11.57070958923842   -0.77900511873194
C           5.18555661901654   10.60433611754714   -1.72851402726874
S           4.35993196101518    9.09115255384474   -1.43393218697137
C           6.07934039543217   10.71424317756467   -2.77632478480199
C           6.86765601879061   11.81520400485274   -3.17528074808891
C           7.65181181548613   11.56183308337993   -4.25959438223976
C           7.51821228084276   10.25124547932814   -4.79067206785331
S           6.35195212426721    9.35180891561652   -3.84421492227767
C           8.24855553271174    9.72924498066584   -5.82801569891108
C           8.17387587138651    8.43344126188568   -6.38345595083146
S           9.67067379020513    7.75533748221715   -6.98242642700320
C           8.94351827254542    6.18592684119891   -7.26840478952355
C           7.58760997283163    6.23969658719044   -6.97357355434702
C           7.14133486311113    7.50936732038658   -6.50166221616723
C           5.72090213133686    7.74617640066808   -6.34147580138506
C           5.10516883291087    8.90982697882704   -6.52359750146249
O           6.62885921382981    5.28873611139463   -7.09377525324006
C           6.85873545626263    4.07274497629366   -7.75993593161932
C           9.77787839299798    5.11922611548106   -7.69659990543118
C          11.08782186051283    5.25276343987033   -8.00607418928969
C          11.91891103202932    4.17135295599070   -8.40481212564665
S          11.30728443990249    2.54023574712081   -8.53755788947252
C          12.84124469119472    1.96024226280347   -9.04484472358176
C          13.77614391842861    2.94720066493714   -9.11439468958524
C          13.25962479887422    4.21307458835045   -8.73712015321292
C          14.09063042669524    5.44517836129863   -8.75598453256869
S          13.60127890075052    6.51765023133770  -10.19183384119027
C          15.58163050327117    5.12409152053819   -8.79577257475700
C          15.90095738517217    4.04322390072705   -9.82439003808482
C          15.21943620734774    2.71346098466152   -9.47369536223315
O          15.89635042072162    2.02835511759472   -8.43697072815166
H          -1.74744875282401   -1.16259970922535    0.34783763195808
H          -1.93391963927107   -1.21759159344259    3.52228441810966
H          -4.41294640532828   -0.07826873073587    1.72536084872901
H          -3.42134570981981    0.16181975687969    4.88288023581157
H          -3.51301201788962    1.39833514404431    3.62014344911383
H          -0.90129889401533    0.56934965890873    4.97358932447449
H          -1.86248782730771    1.95580480967601    5.48540941739115
H          -1.47088223902170    3.12293035075380    3.44314609081884
H           0.79466844791191    3.12839777301806    3.54423630716755
H           2.37745513084513    1.26079736450765   -0.32116920736593
H           2.05091828858816    3.21686516363083   -2.65578501121105
H           2.68512895920792    1.49737950673510   -2.73040222460384
H           5.12998977874646    5.05658136867456   -0.86654655982207
H           4.31941194558632    3.75745766643100   -1.77671273597214
H           4.43797993645200    3.65755747457279   -0.00351164537623
H           0.98120213453183    7.23779126388637    1.94349528381886
H           2.92090264574059    7.23513203340430   -0.42947148497400
H           2.12584714315114    9.47677111035429    1.52625303099178
H           3.45579403767804   11.71053319968778    0.91666122754459
H           5.18633339749030   12.57064793648649   -0.78909364943381
H           6.83940482974266   12.75466262944267   -2.65250957292894
H           8.32368484031373   12.27503031779067   -4.70435225962173
H           9.06321486258157   10.34431078691581   -6.19204961874978
H           5.14595225736045    6.85780477931148   -6.12056574974461
H           5.63944746154545    9.80467343328088   -6.79569119896040
H           4.03810367182476    8.99855809978007   -6.41985859447146
H           5.86978344126060    3.63824901413607   -7.91044626434905
H           7.45548463636298    3.38553883900925   -7.15189129864793
H           7.33626115489743    4.22574659120207   -8.73143347858940
H           9.35257106312921    4.12954790260776   -7.75485329590679
H          11.54845538426245    6.23017553986918   -7.96693398652393
H          12.97099196481055    0.91855334442051   -9.25934895925488
H          13.86721937155670    6.08768275230414   -7.90024358089634
H          13.63504228618761    5.55577191947821  -11.11069754603257
H          15.89142107482864    4.79325977858320   -7.79951785627661
H          16.13815897105312    6.03333985010216   -9.02887359603766
H          16.97852131953530    3.87777524159591   -9.86780624401339
H          15.56863577226946    4.36551872011706  -10.81307129703721
H          15.28277661646364    2.02933313640228  -10.32788922415943
H          15.83597635427520    2.55214040613777   -7.62975075688902
