118
 SCF done       -184.814002316145          0.000224300372
C           6.78450809482641    4.98476038433052   -3.71764524194641
S           6.59280396063438    5.65544497730100   -2.14987333859895
C           4.91256610536513    5.20798988213583   -2.13409493735980
C           4.54799070600137    4.57814179558890   -3.30661314828939
C           5.63115965133256    4.45109980291249   -4.20971380537454
C           5.48024734917026    3.80703987930336   -5.55362361016302
C           4.22009935329084    2.94582466180283   -5.59002786288554
C           3.02619070172632    3.77759265928802   -5.10092015034655
O           1.76574733779952    3.23780670022731   -5.44931532924681
C           1.43221599464642    1.97829562413426   -4.91665641541131
C           3.18366197864927    4.05295595756494   -3.60003572754391
C           4.08331740300061    5.48658173865730   -1.01409063615684
N           2.83123725625186    5.15008593579440   -0.93095494339771
C           2.30092734992473    5.52166581612658    0.24314594705169
C           3.15500533735821    6.16346126714952    1.10863976073204
S           4.71290392107770    6.33768224305889    0.41725118889536
C           2.39787602343537    6.63693660074688    2.28271652898950
C           1.25074507986355    5.61888136545385    2.28248189028040
C           0.89198059707924    5.41139079868790    0.78562157740978
C           0.23831200790442    4.05753647760589    0.47444199112235
C           1.17318704635173    2.86015146760437    0.60605956786747
C           0.06802496507632    6.56474405180633    0.18019555270493
C          -1.37280149820873    6.63578377229140    0.66847846770488
N           0.31783020979086    6.05762463341590    3.30429152833349
C           1.05334568768089    6.80314871111782    4.32113902692373
S           2.86839322924497    6.62724594404204    4.04303483609176
C          -0.54760304983176    5.08718664006711    3.80307335296179
S          -0.13785335027676    3.38875172983298    3.86789398680157
C          -1.68060000118342    2.99487569905794    4.58370111299961
C          -2.42619342360920    4.13897289950487    4.79094640551321
C          -1.77744585146968    5.31752874918448    4.35372226690283
C          -2.42316567173915    6.66380746813825    4.45438062583286
C          -3.47246983300278    6.65608933398078    5.56037624915561
C          -4.47806140717880    5.53147627196662    5.28680310710734
O          -5.04443450335301    5.60540813583969    3.99076024974649
C          -5.99672033561162    6.62100611045953    3.82118886900007
C          -3.78949726649529    4.16843810602110    5.40481421768789
C          -1.99614588488480    1.63504794184363    4.89005675648563
S          -3.38258634794544    1.26786792478644    5.88413726306893
C          -3.06091887601875   -0.44173375628331    5.81784145719253
C          -1.93335490312551   -0.69198536909924    5.07231252254214
C          -1.33970393432616    0.47146723663571    4.53413784096979
C          -0.10313520692970    0.41168951384777    3.69604390406982
C           0.23223084165418   -1.00667928257574    3.24005718033831
C           0.08677880998178   -1.98920523698897    4.40078461663524
O           0.92644947131486   -1.53723519600113    5.44248822570890
C           1.06200169712964   -2.41710703279222    6.52691576832973
C          -1.39447096430027   -2.06002664372720    4.79322754309059
C          -3.91428175154623   -1.36049874943372    6.52425218900633
S          -3.23874112859626   -2.61875750448622    7.51686894973726
C          -4.81602735842653   -3.16786195083721    8.00761817985946
C          -5.79976347261114   -2.41239658859153    7.41301475138949
C          -5.28870843750252   -1.38369572294374    6.58741817422086
C          -6.16646466503201   -0.46680984559543    5.78598922062163
C          -7.63289023037747   -0.53790164098891    6.21830665292762
C          -7.85808523808403    0.33710867303488    7.44600471746976
F          -6.97752086431018    0.15839243545574    8.43657779046444
F          -7.78921666926762    1.64263688865547    7.12299356375694
F          -9.07648579630770    0.15387317379909    7.98671957761202
C          -8.06486342006552   -1.98661843102191    6.44943848419900
C          -7.26953684470880   -2.64298814202848    7.57555178260826
C          -4.86556648790799   -4.29266604199725    8.90372063033805
C          -5.88855194221843   -4.68089130194993    9.66167633319919
H           7.74575948484781    5.02308544126143   -4.19085351269346
H           6.36268166011937    3.20504791528099   -5.78078492056556
H           5.41049374380882    4.58802232291977   -6.31724033523350
H           4.35679122577325    2.07616142292734   -4.94384213050930
H           4.03156466733827    2.59803091762820   -6.60706768182868
H           3.03081539101168    4.73541043026792   -5.63647799600601
H           0.47420578149484    1.71838207673590   -5.36431594748163
H           1.31608352500566    2.00744819025308   -3.82823943580139
H           2.16683693111290    1.21113555727547   -5.18091421342157
H           3.03969386424476    3.12936976945801   -3.03178295196896
H           2.42673459131561    4.75795002934040   -3.25316222100310
H           2.04148511976972    7.65942807801225    2.10324030585056
H           1.69591343399048    4.66090854056588    2.60924529699356
H          -0.62065230367487    3.92348697009739    1.13315573813765
H          -0.12498862981443    4.09482585820150   -0.55433583926400
H           0.63610799770339    1.94901241349922    0.35135340871307
H           1.55126963222171    2.75390562815610    1.61984609396858
H           2.01684947656761    2.96289733600448   -0.07119951404409
H           0.56498906612800    7.51099825010787    0.40534352447072
H           0.08176606191000    6.44220614269851   -0.90554866989748
H          -1.86407555714554    7.50077940699780    0.22805054715901
H          -1.39889022123278    6.73246560788735    1.74855663521231
H          -1.93005439478066    5.74804623158997    0.38400404536598
H           0.82106197934801    6.45969855168168    5.32915143003171
H           0.83011163393075    7.87143442603741    4.23484320706487
H          -2.91821375691488    6.88849247612393    3.50497376430223
H          -1.67260059984520    7.43476353188520    4.63540241284907
H          -3.97840204700966    7.62187476246091    5.60469634741694
H          -3.00522837554962    6.47341053120111    6.52941552617145
H          -5.29099822992714    5.57823420979008    6.03200615200805
H          -6.43458766471663    6.46755205788461    2.83625663826478
H          -5.55096020735942    7.62173263909695    3.86069246379589
H          -6.78434011229640    6.55695563923135    4.58282715848259
H          -4.43103088428531    3.43024220797194    4.91745501735799
H          -3.71771838666350    3.89863200055795    6.46263160066303
H           0.73187635859149    0.79447818944480    4.28987724462973
H          -0.21089861500746    1.05461029400463    2.81970042353212
H           1.25566699872316   -1.02654217648817    2.86555460245464
H          -0.43740206625440   -1.31701221913170    2.43621200467004
H           0.41199490863053   -2.99747290004035    4.08528613237644
H           1.87228478243610   -2.02223283340154    7.13762362709773
H           1.32214832681768   -3.42830536581685    6.18840729267675
H           0.15201069065343   -2.46975690094834    7.13548158272234
H          -1.52606830334104   -2.70565846105421    5.66063966567790
H          -1.94907446656406   -2.51141362755831    3.96447234308515
H          -6.09807061909969   -0.74810156538774    4.73053768929716
H          -5.81247834934846    0.56211483382987    5.86981324707679
H          -8.26132555660576   -0.09167710363599    5.43902489404604
H          -7.89876199929350   -2.53193370273847    5.51829392139473
H          -9.13061957555815   -2.02666613842222    6.68109709140233
H          -7.47182140551741   -3.71644115376175    7.58325144594656
H          -7.59400907130898   -2.24020182014184    8.53947270786358
H          -3.93531166063521   -4.84561626777651    8.95948086761608
H          -6.82378575387363   -4.15496528146345    9.70333544825112
H          -5.80011007047684   -5.54582301360286   10.29606858658399
