80
 SCF done       -169.604126015872          0.000508878187
C          -5.65820817832901   -0.44832753945173    1.34182222810450
S          -5.92058609264781   -1.73915961799975    0.24692754090529
C          -4.36415922946501   -2.44200903517384    0.59191539785486
C          -3.69811890878004   -1.67382874587444    1.52722523914069
C          -4.43843553266929   -0.54597048806094    1.94888095915550
O          -4.03454204534072    0.38602820298060    2.85724501578920
C          -2.86652436617415    0.36957287000721    3.51353103038423
O          -2.61849833338958    1.25096070077285    4.28520677364013
C          -1.83168428330563   -0.73913251610502    3.31304168149290
O          -0.81015598404628   -0.72905606382041    3.93967227889429
S          -2.10078142387980   -2.05146414527235    2.15259441350992
C          -3.88348576428626   -3.63389075802604   -0.01938195958488
C          -4.61783544855553   -4.36363741296612   -0.88311774906722
N          -4.26275998420168   -5.51297316742438   -1.53162940867694
C          -3.08848542079978   -6.19289622302313   -1.57219566196038
S          -1.62997117578644   -5.65164005539182   -0.81306825641680
C          -0.80262787548834   -7.06065559905093   -1.40639963117504
N           0.51445441652421   -7.26131430893064   -1.04869630795500
O           1.02961807020826   -8.34156585601290   -1.35655329770422
O           1.08923320910667   -6.38446291614688   -0.42325150409077
C          -1.60805173217157   -7.87863187867456   -2.15447522718187
C          -2.92924433947465   -7.41503729925609   -2.25721781817410
C          -3.96280402983863   -8.12635912244380   -2.95215429464134
C          -3.79773593727655   -9.41478409078882   -3.35050777317047
C          -4.70697440769733  -10.19297061645586   -4.08962033741200
C          -4.38284843670758  -11.46412012946383   -4.49622102131043
C          -5.13910945184710  -12.35914518863392   -5.29564214532668
C          -4.49926061703964  -13.52453534454678   -5.58960275729243
C          -3.20295780288264  -13.61709721536456   -5.03016541863000
S          -2.83377093015595  -12.18685712815143   -4.09702045001869
C          -2.26479361190292  -14.61932302666117   -5.16699420506573
C          -2.32288773595374  -15.80792825095594   -5.92839223607411
C          -1.18248389229020  -16.54953176659285   -5.89779779149862
C          -0.15165950311728  -15.99242587729948   -5.09645796400212
S          -0.70883393575795  -14.48296198671236   -4.37118108065550
C           1.10163663710070  -16.48782872022393   -4.89335856127829
N           2.00999637948391  -15.87917787217936   -4.08326678163596
C           3.28483126756477  -16.26727149408014   -3.88249277514382
S           3.91848828533319  -17.63030900796494   -4.76033769681241
C           5.43549107402532  -17.44796867704324   -3.93194886750727
N           6.44587261939804  -18.35226690065052   -4.24629097543406
O           7.51589524050413  -18.23946592125061   -3.67195576559834
O           6.17714569239802  -19.20202902582593   -5.08457082268517
C           5.43871211779960  -16.40938581951120   -3.04194795139475
C           4.21928342164159  -15.70379031208704   -2.99190718786582
C           4.06822915604750  -14.61086948831116   -2.07573627423025
C           3.07675295544459  -13.70924348976459   -1.91212479194948
C           3.10349402608103  -12.73191731914886   -0.87373496210978
S           4.39564477127248  -12.57749353312929    0.26997892486295
C           3.59838442016137  -11.30037258247304    1.13946308315759
C           2.37695208542978  -11.01862490150247    0.55709596776377
C           2.11139112694457  -11.80824899565420   -0.57845779304473
O           1.00829928833655  -11.73586668723771   -1.37717852004159
C          -0.00601976029229  -10.89150905725856   -1.20928670166465
O          -0.88979370515002  -10.87509961671352   -2.02812478599682
C          -0.11027989390017   -9.98017644783847    0.00032291156093
O          -1.11458217124893   -9.34072288762088    0.19764627894627
S           1.19880157051120   -9.87946859445554    1.18161538991085
C           4.27626778591962  -10.74242506544961    2.27498980762636
C           3.86526969561941   -9.72290495460419    3.02698823356852
H          -6.39835877040503    0.31015973612407    1.48940005955593
H          -2.88680939629940   -3.92144256850672    0.27407789652118
H          -5.62274044224281   -4.03682502660113   -1.11657293300845
H          -4.99815372397055   -5.94933721874119   -2.07328326860442
H          -1.24096806886204   -8.78275942419564   -2.60123066624959
H          -4.89580747052505   -7.61935211796363   -3.16686801147514
H          -2.87913327843638   -9.91628759495388   -3.08148409973571
H          -5.66681037876586   -9.78433276386530   -4.37590463998793
H          -6.12731635986741  -12.10578584333370   -5.63788567108773
H          -4.91720822557077  -14.31192884305942   -6.19142490759129
H          -3.20250473069941  -16.07340199238011   -6.48672720222729
H          -1.04020302813712  -17.47569011641376   -6.42481228935967
H           1.41880095556061  -17.39616626915537   -5.38268336885730
H           1.68498201398694  -15.06300087370576   -3.57727363615112
H           6.30145167819722  -16.16644093792969   -2.44812653856340
H           4.91068165340943  -14.51348548523843   -1.40034299645283
H           2.19692493813916  -13.64937174398975   -2.53694129782302
H           5.21858394626343  -11.22689326640871    2.49763622207254
H           2.94667250071672   -9.19604700838760    2.84331236905816
H           4.45976281624376   -9.37992167233570    3.85511733519146
