103
 SCF done       -195.281651102180          0.000489233307
C           4.64428754780668  -13.20260663842046    9.24624104314874
C           5.78855649337537  -13.48098408501073   10.21123229686994
O           5.91672197938319  -13.06773801788431   11.32306777420070
O           6.67954716743283  -14.29998931253416    9.62351682708927
C           6.33311382367931  -14.55415037613824    8.26774405871573
C           4.81361397206078  -14.30693585711503    8.20593589438596
C           4.27395546953142  -14.01682725792140    6.81073642426853
C           5.06617743252382  -12.93394644953470    6.09096761486603
C           6.55275475160969  -13.25287229678393    6.01845592694000
C           7.19392153650477  -13.64297947769576    7.35938209279626
O           8.37609327552580  -14.34450360568770    6.99312713083694
C           8.27799642290187  -14.86471403400999    5.75810244036933
O           9.12226380033252  -15.54867802435295    5.26803432685739
C           6.94315811615215  -14.43923099191233    5.12647850434076
C           7.07080893229185  -14.10490780381711    3.68301640372650
C           6.41151180999018  -14.74785517275751    2.71296490020322
C           6.51901139882314  -14.44492322665641    1.32211691111807
O           7.33702228393514  -13.46209570007420    0.87065188454602
C           7.23072312472639  -13.41915895810499   -0.48541332483101
C           6.30047219780099  -14.36964157046749   -0.90359701562178
C           5.86132248202964  -15.04746033581682    0.25591287544586
O           4.99616273307270  -16.06906127608555    0.34325322656878
O           5.84148571174638  -14.60268527181141   -2.15065846535957
C           8.03305132514695  -12.55927657437315   -1.26734881746262
C           8.92150749450771  -11.65988668581767   -0.76835345596067
C           9.75378037239078  -10.87136745421988   -1.59623192473266
C          10.65045570569627   -9.97408304520596   -1.12565583995985
N          11.47226780165795   -9.25995349765859   -1.95415210190214
C          12.35375478199590   -8.31780433829325   -1.58588807915220
S          12.40395384777366   -7.75603675472308    0.05975145695416
C          13.60063744628069   -6.57399694347564   -0.39266682225428
N          14.08531160613318   -5.73716469774942    0.61285192169710
O          14.92334133787303   -4.90614206843459    0.30875958531541
O          13.62421005677735   -5.90440254739870    1.73166579893354
C          13.93331463667447   -6.61712176322305   -1.71553537092645
C          13.25600534230845   -7.62921848121071   -2.43237659896656
C          13.54071892928634   -7.87037043777931   -3.80316187907738
C          13.22750623855912   -8.95597752933239   -4.57240824164514
C          13.60816809138262   -9.06855552189277   -5.91567537811573
C          13.33163159507990  -10.15665692521845   -6.71169884825103
C          13.74143893327895  -10.36217781394908   -8.04641716973989
C          13.33928158122804  -11.55315563551790   -8.57889571369290
C          12.57551785194269  -12.34454275934997   -7.69706466190229
S          12.38773430841976  -11.53844222673138   -6.16449929075949
C          12.02382285737068  -13.59476284946583   -7.94701657683579
C          12.16793373777871  -14.37733130781683   -9.10612779326700
C          11.51198938838749  -15.57641541078118   -9.04369612762152
C          10.80990994569489  -15.78725056258884   -7.84150028015056
S          11.01875556153066  -14.41932881775311   -6.77507895867704
C          10.04520835938510  -16.90065176143541   -7.52276161690044
C           9.31941030336559  -17.02332551706920   -6.35171739613179
C           8.54863657209066  -18.12625135740366   -6.00907777407012
C           7.72375738859622  -18.26332036884674   -4.84891615946170
C           7.44343695104770  -17.29495561677932   -3.90289774224353
C           6.58204571543122  -17.47282408204655   -2.80903324120085
N           5.88173844385813  -17.52030505527785   -1.89703442426592
C           7.91024815678814  -15.97222352667157   -3.92096331213108
N           8.19690700195278  -14.85843267116898   -3.84418010162384
C           7.15942876298514  -19.61122354628008   -4.85128280410819
C           7.59511232761664  -20.27786041585508   -6.02147601254294
C           8.47120244883057  -19.36911252135452   -6.79655799456072
O           9.00586731238976  -19.62515473753305   -7.85834784115563
C           7.22583709038509  -21.56412682136772   -6.32110074764899
C           6.38551503100370  -22.22876715880646   -5.41864793031290
C           5.96104558025833  -21.55732797052883   -4.24989697837282
C           6.33548747903102  -20.25227269163400   -3.94798473988786
S           4.93244332789766  -22.56193575103358   -3.27309390103698
C           5.08400426278029  -23.85266035922928   -4.43510876140294
C           5.86446066242954  -23.54924292523675   -5.49914856400580
Br          4.19553079713861  -25.47771908233079   -4.13456836414733
H           4.78467579967857  -12.20677338234010    8.82312111243321
H           3.68951381138294  -13.22361288652324    9.76649847834913
H           6.59848746401491  -15.59500271762453    8.05852558842167
H           4.32060405613098  -15.20839994489797    8.58716319568845
H           3.23006542486957  -13.71084453334499    6.89393687021346
H           4.29650198759203  -14.93820500900165    6.22654272977460
H           4.93676124350594  -11.97818059092867    6.60235943544729
H           4.68532245032168  -12.81689045934519    5.07514892259981
H           7.08063083721297  -12.36896186554932    5.64152398531020
H           7.50731999601476  -12.77375916345197    7.94624163656876
H           6.24865877154190  -15.27608661096948    5.25149012559507
H           7.74320994416736  -13.29762107119892    3.43153544884138
H           5.73710645423056  -15.56319601369229    2.93236788185785
H           4.98436243545350  -16.54511817554803   -0.51081496369166
H           6.40088047280730  -14.15067119552603   -2.79812812776776
H           7.93898412474678  -12.67130660757596   -2.33952038903228
H           9.01185642131357  -11.54834091434875    0.30193555104431
H           9.66899557784441  -11.01943239997324   -2.66602392474204
H          10.77280028153292   -9.78909423374058   -0.06923272278424
H          11.37246929485151   -9.43594365302538   -2.94773711956648
H          14.66234029969162   -5.95550319899264   -2.14767251392613
H          14.13308397029932   -7.09533945546449   -4.27321948538751
H          12.72048317853929   -9.81715585225907   -4.15841579361495
H          14.16477649095523   -8.25652159213239   -6.36432936558918
H          14.32815864069481   -9.62963580104423   -8.57187519928438
H          13.56634880420316  -11.87414046878307   -9.57912946175514
H          12.75062305015427  -14.05266463063764   -9.94923804982950
H          11.50961411874712  -16.31060245656260   -9.82932971155013
H          10.01168522743658  -17.70331894083872   -8.24520419262318
H           9.35812560482744  -16.19159002415434   -5.65791208302793
H           7.57147533076100  -22.04589680364235   -7.22220417776408
H           5.98715988892038  -19.78536979305559   -3.04186946396846
H           6.06534133129369  -24.22687722471810   -6.30879639217149
