109
 SCF done       -202.453975067930          0.000943224256
C          -1.28901820557195    1.46518618940283   -0.54547090310932
S          -2.17223984856990    0.01287229988214   -0.40834926097825
C          -0.72139063289732   -0.92821492630666   -0.33727274386201
C           0.39384961766235   -0.12777446166628   -0.44700659616770
C           0.05820108567946    1.25080678529301   -0.55520410335279
C           1.02941593902665    2.38305998645380   -0.69574220427800
F           0.46808454207227    3.54643478995475   -0.31805460943602
F           2.13168206389346    2.23850896826224    0.04175728461331
F           1.42465504689390    2.56659674316349   -1.96747753916824
C           1.79965813558144   -0.62745303332840   -0.58169578890355
F           1.86054204857145   -1.91723765822270   -0.96156801272121
F           2.46984742558686    0.04818833239604   -1.52928929988964
F           2.52579047305706   -0.52855341015127    0.53828038384922
C          -0.81287907071322   -2.35962068617190   -0.16902948961857
C          -0.01979372804156   -3.05658018964827    0.75382037235932
C          -0.06182054615636   -4.49622316325408    0.85486458835615
N           0.84585712307209   -5.11502267968830    1.62481727795348
C           1.66777000971031   -4.40639702340581    2.35891880920050
C           1.55483982004146   -2.97658795794166    2.41212885255298
N           0.74780279308315   -2.34579882537665    1.60036251562397
C           2.30583938681303   -2.24508486279502    3.36570566943866
N           2.91280061611194   -1.70426605271333    4.17256188327833
C           2.64943722943461   -5.07486829160304    3.12941501153792
N           3.44433595734695   -5.59083314898970    3.77369821364613
C          -0.98443328884759   -5.27337889499475    0.11679713978629
C          -1.82506993831367   -4.55474329741716   -0.75636948837875
C          -1.74424809268743   -3.11635759039181   -0.89177846105310
N          -2.63527917197352   -2.64003018588909   -1.76413541451772
S          -3.49887800266814   -3.86651247915486   -2.34068961183494
N          -2.79130254454254   -5.05686998158113   -1.53287788729962
C          -1.06020810420885   -6.71585670642720    0.23461302694843
C          -1.41568876920102   -7.48918034504766   -0.88340017106846
C          -1.49015083938291   -8.85193693306066   -0.76589669015049
C          -1.21975182123058   -9.48764636309547    0.46149964050213
C          -0.87675383638104   -8.73036828667075    1.57536645588287
C          -0.79977237744073   -7.35977585008200    1.45430661342834
C          -1.38338396490845  -10.90880994190710    0.28898396333167
C          -1.76806697608058  -11.15843580614104   -1.04390889299331
C          -1.84381084194176   -9.86802405889265   -1.82562111160540
C          -3.25462587898368   -9.62212266630589   -2.39016200534462
C          -4.32770038565965   -9.60100908109494   -1.30857635680428
C          -0.81820210595351   -9.85434149423852   -2.97539437245400
C           0.61068309442728  -10.08600165095810   -2.49904808048087
C          -2.01190980045691  -12.43647899684926   -1.46955558609642
C          -1.85974829726018  -13.51884754662076   -0.57847643186957
C          -1.46185900318654  -13.25044996376789    0.74487399995692
C          -1.23038982362019  -11.96562171823506    1.18121893036057
C          -2.12560428650448  -14.83741142167595   -1.06112401921737
C          -1.90710213279507  -16.01846598672409   -0.41427119121825
C          -2.21896678450591  -17.25925161278649   -0.98640629926866
C          -1.97358472191756  -18.48530516265649   -0.41227922832524
C          -2.28565824265515  -19.74836318937895   -0.96391930271224
C          -1.90751167904187  -20.80710082288824   -0.19139935571668
C          -1.27086491300671  -20.43877808635677    1.01061000032958
S          -1.18384761268122  -18.69653370709092    1.14190956246323
C          -0.74388830913912  -21.28442254236070    1.97513855881898
C          -0.73083311887119  -22.69539089870582    1.95525351233512
C          -0.11056614189136  -23.26496509348177    3.02734827165357
C           0.40676370924176  -22.34057826371069    3.96337746920975
S           0.05729315795899  -20.69986575068805    3.40834318552563
C           1.12535061281088  -22.50914616725484    5.12201951230617
C           1.50405357239195  -23.69435108188853    5.78657701934932
C           2.41500161118210  -23.71591804945875    6.85218603076080
C           2.59307230791345  -25.05038813021746    7.28065389101027
C           3.38767467256775  -25.60699525515157    8.26117391907714
C           3.33453646932102  -26.99784555416128    8.43305251217254
C           4.00212547004798  -27.84504416109402    9.30735045746313
C           3.58096530888977  -29.19051145599224    9.06704185132792
C           2.65094562999754  -29.17230744926631    8.04288149099077
C           2.46341991087643  -27.82255087329113    7.61199138605331
C           1.66969267316514  -27.27635592372091    6.64064244529455
C           1.72961084176476  -25.87735899098039    6.45557818806395
C           1.07952739654566  -25.04945463027918    5.56239143922218
C           4.03202573363191  -30.37602127172828    9.75510558808027
C           4.92993846073715  -30.40780958568059   10.73621048334335
H          -1.79157049145177    2.40962345297030   -0.61212597051548
H          -1.60857443400463   -7.00307444292328   -1.82578099604823
H          -0.68282175021484   -9.20402347190535    2.52571834133594
H          -0.55971077487315   -6.76586157515128    2.32086156993421
H          -3.48314762881810  -10.40668403868893   -3.11483352222812
H          -3.25693536451339   -8.66641490115904   -2.91772004071463
H          -4.34641860593228  -10.54369380410535   -0.76556204665088
H          -5.30602331300589   -9.44152770347383   -1.75595898004821
H          -4.13899242700264   -8.79828816085730   -0.59955384854057
H          -0.87855595924944   -8.88947024134029   -3.48274862112579
H          -1.09059669669029  -10.62894138545137   -3.69556233057266
H           0.91195814809928   -9.31307054521913   -1.79573802348972
H           1.29398647808116  -10.06580811460859   -3.34479384517243
H           0.70160895208351  -11.05178002390909   -2.00668350132188
H          -2.31282765321317  -12.63285284614513   -2.48906279034171
H          -1.34937706030984  -14.06975354319125    1.43778254668221
H          -0.93451538993953  -11.78030362674135    2.20298304254810
H          -2.53348220859044  -14.89128727675693   -2.06410046802779
H          -1.46642637229881  -16.03278327705741    0.57322464428994
H          -2.68830624630686  -17.26597468110733   -1.96219953182610
H          -2.77807499013357  -19.83637424381508   -1.91622794699826
H          -2.06609185152890  -21.83577882637850   -0.46038931763179
H          -1.16862754528988  -23.25634262999735    1.14908247248032
H           0.01106964778039  -24.32536684300849    3.13891082466734
H           1.47823833896928  -21.59771082339546    5.59013169598599
H           2.91259586279006  -22.85693367890127    7.26280693275109
H           4.03308577394170  -24.99857422152156    8.87819427069671
H           4.72064820851551  -27.54141788809718   10.04614256320445
H           2.14621392126311  -30.02701998299439    7.63068768750909
H           1.02093252792418  -27.88349701308311    6.02444741768789
H           0.34450735993095  -25.37049278377191    4.84919884609803
H           3.58005647000335  -31.29933017581004    9.41380240622472
H           5.41037442367873  -29.51814187782992   11.10596726440699
H           5.22177454340855  -31.33331557059779   11.20136235704989
