113
 SCF done       -181.598376323422          0.000751990050
C         -12.19580462385372    0.50299056554608    2.83014938474902
C         -12.55016873657616    0.64627013678486    4.11629867911107
C         -12.40173446761946    1.93199447180898    4.74461929909549
C         -12.75120329978751    2.16184077966032    6.06097262577133
C         -12.60032549671760    3.42846772531632    6.64797793512979
N         -12.47207141521658    4.47255666969876    7.11082323783662
C         -13.27882233504018    1.14863857870504    6.87682721790603
N         -13.70905873483179    0.31426947390566    7.53900809859927
C         -11.86744265262021    2.96056678367587    3.90973435489210
C         -11.53803450359511    2.72534939137140    2.61057415332365
O         -11.70339404876753    1.48837730819601    2.06457151452475
C         -10.99551714375372    3.71231523714269    1.68481118843633
C         -10.80474453464318    5.04751082871766    2.07151661924389
C         -10.28140835079210    5.94684104514605    1.17430482277723
C          -9.98799563346468    5.54594898970758   -0.14158962502078
C         -10.17594644756208    4.22849605277363   -0.53552766099284
C         -10.66666678398667    3.32171588785364    0.38019290346157
C          -9.52731133527201    6.69560142145080   -0.88293813915582
C          -9.53626636716964    7.81485086190175   -0.03104162888190
C         -10.00173128622460    7.42537077982324    1.35929586971976
C          -8.82762615939342    7.68088827844212    2.32939867601828
C          -9.04901590584867    7.26740834341661    3.77847240662548
C         -11.31887990758897    8.11245312645433    1.77523137307629
C         -11.26278142580316    9.62372668083664    1.95651687853975
C          -9.09129766761029    9.02866222883855   -0.49454636984569
C          -8.66008055732131    9.16493698622641   -1.82654357576263
C          -8.68559536913126    8.03892984243587   -2.66471673678229
C          -9.10752985465079    6.81225658893428   -2.20185443768707
C          -8.20691118040700   10.45460499788702   -2.27096820135604
C          -7.59593908390420   10.73608003982708   -3.44901229107447
C          -7.16509493784600   12.02774119819423   -3.81572131296557
C          -6.48360669326732   12.31054825127033   -4.96701612127021
C          -6.00271897924147   13.57765126011094   -5.39227710386072
C          -5.31965162565939   13.55605540020203   -6.56551699477804
C          -5.21560543599425   12.26791041676896   -7.14877025848420
S          -6.04160754444363   11.08546427613809   -6.15167747457635
C          -4.55850278743272   11.90799953593689   -8.29998301397051
C          -3.79186602524097   12.73710517718336   -9.16250376605819
C          -3.19902810372134   12.08080653213903  -10.18652176649549
C          -3.46225320836350   10.67503034075192  -10.21344925475489
S          -4.53908079803827   10.24820491422012   -8.87387956895461
C          -2.99031919571962    9.75226046352282  -11.07693090374006
C          -3.40584611100725    8.34048218425409  -11.01800949662544
C          -2.92596824094633    7.38529590945359  -10.11531032217506
N          -1.89546108657683    7.44138810591644   -9.19522482110648
C          -1.02363171073610    8.57906198100980   -9.02856100256938
C          -1.26755360071368    9.32372137075233   -7.71783770906956
C          -1.81560461485729    6.23255163345702   -8.53920173496556
C          -2.81983197256659    5.37189872900331   -9.05338607984954
C          -3.50735700088975    6.09786443910331  -10.07833023153791
C          -4.53246836057317    5.73772725432300  -10.94153040507357
C          -4.96754856936994    6.66725218260859  -11.86175955318011
C          -4.41113103781792    7.93988769555488  -11.89183325986108
C          -3.00715684007672    4.08795836986579   -8.56701716338185
C          -2.19453759658214    3.65050893083507   -7.53958456143248
C          -1.21924619909095    4.48421885367824   -7.01979623589035
C          -0.98496091934718    5.77976012313536   -7.49444204757391
C           0.09243059650720    6.54240609707091   -6.89668732274538
C           0.46200253939934    6.45015038715459   -5.60436803271333
C           1.54653973554560    7.20123551151428   -5.03370877621694
C           1.89117568330079    7.11988964072406   -3.71684882063995
C           2.96719037446531    7.88908301434650   -3.18308800701430
C           3.34031413290084    7.82732883689912   -1.85464386195922
C           4.40136212810305    8.59421805955382   -1.34761738313049
N           5.26980008987479    9.22661328802007   -0.94008378172621
C           2.67697458757183    6.99400987944250   -0.93940153376218
N           2.12737773730562    6.30968277686891   -0.19788559151419
C           3.63842477941823    8.73954446802900   -4.13318942584891
C           3.22991899172656    8.75565119274987   -5.41053448279853
O           2.21397461655194    8.02075746793156   -5.89403406124527
H         -12.27494119916572   -0.42555159318431    2.28398746204462
H         -12.94182955458735   -0.18448891148207    4.67932752980002
H         -11.73181396100903    3.93747112096585    4.34206230920674
H         -11.08018868580339    5.36791563487191    3.06194477067183
H          -9.94726558508819    3.91717192405999   -1.54341547556757
H         -10.81272833879790    2.29364233602267    0.08774016037260
H          -8.58981331069509    8.74519466605467    2.29475458869117
H          -7.95850705938347    7.14395046594824    1.93916825463706
H          -9.93242662281354    7.73971457503437    4.19916906180085
H          -8.19016740916863    7.57305943627338    4.37239927753737
H          -9.14706398702848    6.18914527422434    3.86750410622368
H         -11.65540940743364    7.65864886706269    2.70864974684791
H         -12.06647141638296    7.87680174049132    1.01266987124380
H         -10.49919643405724    9.90975526808406    2.67472390394537
H         -12.22287314581964    9.97449091376140    2.32955239020225
H         -11.06875635981910   10.12392228050261    1.01219866850083
H          -9.04437564700875    9.89112756011697    0.15316604716344
H          -8.36970105037165    8.13319521274596   -3.69176079704826
H          -9.10809026505783    5.95231258752615   -2.85502524653477
H          -8.35591375309261   11.26936730960122   -1.57199452032491
H          -7.39353954917087    9.94850215780606   -4.16242531003841
H          -7.37280952505114   12.84961785403700   -3.14284651313654
H          -6.17766370692762   14.46238538493996   -4.80543233075264
H          -4.88536128178060   14.42326672415503   -7.03009015837935
H          -3.69858729551464   13.79404346939561   -8.98610293871331
H          -2.57423245591362   12.54030550512865  -10.93209894473062
H          -2.39302274810617   10.07465430866718  -11.92066701960900
H          -1.21217449635039    9.25394099417038   -9.86713287985186
H           0.01812038539799    8.25255145040286   -9.10257562894542
H          -2.29534405204925    9.67096761261287   -7.67146894039265
H          -0.60430800371373   10.18266910886539   -7.65456045345224
H          -1.08913706984810    8.67892050083516   -6.86132807140099
H          -4.96680521796605    4.75128460109896  -10.89413426488750
H          -5.75361491946551    6.41832751582074  -12.55824626014248
H          -4.78539568687628    8.66334551251848  -12.60187233779412
H          -3.77302396949221    3.45323757229448   -8.98467759103154
H          -2.31085270693756    2.65499688990071   -7.13931745392114
H          -0.57726893064812    4.10607721849383   -6.23909723291663
H           0.65501016325997    7.21131461811794   -7.52870714638635
H          -0.07349963093146    5.81882080881337   -4.91202666680257
H           1.34063936489050    6.46167902832591   -3.06345555716021
H           4.46191663604486    9.35451945503761   -3.81000068691840
H           3.68235640295731    9.36529878745927   -6.17873304936303
