102
 SCF done       -163.334358399679          0.000652614859
C          -6.06865754887724    2.45220474708924    7.84490359401237
C          -5.36814485807944    2.47964030478804    6.67123957824806
C          -4.66292158798697    3.62778310106920    6.29189965732248
C          -4.64262861977157    4.76036425047286    7.07609249387865
C          -5.37374681594037    4.75659407265414    8.29804372880880
C          -6.08927778445471    3.58675393174841    8.67872532539536
C          -6.80073679728203    3.62360441963817    9.89672210654264
C          -6.78818007285763    4.76456448210525   10.65014221214830
C          -6.06598834209138    5.87079848947966   10.16872363641407
N          -5.39424893930654    5.87153351912941    9.05354751647282
C          -3.89123576773043    5.94753356999134    6.65167363363056
C          -3.95094872663886    6.35593620429078    5.31504253707830
C          -3.24153003659947    7.46276786930902    4.90913980439174
C          -2.49495544067787    8.20229439736990    5.84237917991173
C          -2.42139891024449    7.79583291551691    7.16600796906779
C          -3.11204324141177    6.66552444081328    7.55889023383147
C          -1.94469656970641    9.36437635647242    5.17871265142522
C          -2.34607846890817    9.34073526255291    3.83193638616006
C          -3.14904118780621    8.09067628014947    3.53599347041661
C          -4.53156711981991    8.41582640372718    2.95260385925687
C          -5.32568966056190    9.36380621296847    3.84386497022748
C          -2.30592535044477    7.23080082215021    2.56555998871055
C          -2.84240063199301    5.83477383779381    2.27852842756892
C          -1.98135676704903   10.35122593618840    2.98029088506212
C          -1.21039154978593   11.42987353174812    3.45534378240222
C          -0.81839898857799   11.43589570551440    4.80455970547327
C          -1.17817277192109   10.41676158993932    5.65994393035471
C          -0.87174855938999   12.47841841279491    2.53581399952129
C          -0.15304573927914   13.59990848141674    2.80340189277816
C           0.11840717997584   14.59573527385496    1.84542067887853
C           0.80252259363165   15.75214816425762    2.11160042445918
C           1.12632611737317   16.79786527787156    1.21103109723596
C           1.81758513560378   17.83019944720234    1.76712355369510
C           2.08045877941345   17.66466224353996    3.14608786622672
S           1.41643903531972   16.14574315553769    3.71384152614813
C           2.74887432279581   18.50648479570298    4.00847286192905
C           3.37024873336845   19.75145758111060    3.76545659387729
C           3.95545668910618   20.31589123584704    4.85855287288997
C           3.83112059315806   19.54945252854203    6.04416035457996
S           2.92477340873286   18.06833214206992    5.69677489396424
C           4.28845343989726   19.80531171935718    7.30403867201777
N           4.04252247823729   18.91203575167851    8.30042239442728
C           4.35375783069905   18.94544139023608    9.60908682393760
S           5.19302132391893   20.26776371054877   10.34992683813376
C           5.03527423948184   19.47212759661113   11.89257841539823
N           5.58240483252548   20.11266113840663   12.99326130464913
O           5.48002008847601   19.57124185260069   14.08452129208824
O           6.13508522725419   21.18737454060788   12.78768228605735
C           4.37336262332988   18.26937385175735   11.82380867481756
C           3.97979755935526   17.93972850738274   10.52231986944548
C           3.27256254388610   16.75650305539417   10.09364867833525
C           2.56352417277065   15.91494612428685   10.85826742620206
C           1.86417277609329   14.76489681868232   10.29801646690131
C           1.92585755304453   13.54875229339758   10.94561792906385
C           1.38528348671365   12.38990754074924   10.37823132518493
C           0.77586425323254   12.43376104777095    9.15463608031417
C           0.62856925528742   13.66394076265815    8.48230254899553
C           1.14378966321513   14.85430427014683    9.07047402977281
C           0.83643539007693   16.06638083528332    8.41615153867069
C           0.15585105269964   16.04494849252433    7.22911744061869
C          -0.22972690392351   14.80326433260810    6.69888084245300
N          -0.02340957060433   13.66709191740395    7.30107098455694
H          -6.61258270485341    1.56940634311799    8.14966370589707
H          -5.34849836710791    1.61225407433361    6.02757022137935
H          -4.10121309974630    3.61270747260138    5.36888831150553
H          -7.34887757022101    2.74614624755690   10.21267345297340
H          -7.31977852404542    4.83004068533720   11.58698330108229
H          -6.04325414295552    6.79638847785759   10.73083452854829
H          -4.58729208713347    5.81901673214959    4.62721613461781
H          -1.84005916458620    8.35779477252387    7.88167894748126
H          -3.06025498959147    6.33150761093445    8.58246088611260
H          -5.09522897458953    7.49026196684872    2.82875651807952
H          -4.40246259641594    8.86543455153176    1.96541474113721
H          -5.47216936993872    8.92753320133461    4.82944178252686
H          -6.30133710802061    9.56242184504691    3.40581921376628
H          -4.80192884437966   10.30951739687402    3.96326389416423
H          -1.30128134683800    7.13916302812863    2.98728300849200
H          -2.21859082841426    7.77993895068896    1.62495915868869
H          -2.85599530666559    5.23406558415141    3.18364716638038
H          -2.19592477252558    5.34151471353352    1.55511552513761
H          -3.84592811926560    5.87194702396709    1.86245694703498
H          -2.28832144193118   10.33946247441052    1.94343621190586
H          -0.23472102138693   12.25167513716499    5.19886459621035
H          -0.87356269863008   10.44982129027957    6.69450565245758
H          -1.24558330260782   12.35156051245921    1.52581932075027
H           0.24392245253341   13.76740587756416    3.79553099934230
H          -0.23689802774708   14.44857977534666    0.83346464026957
H           0.83729490356034   16.74855625137247    0.17572265200389
H           2.14496482986285   18.70257293577539    1.23010883483246
H           3.36972571946631   20.19451867425713    2.78559426972084
H           4.47406199799947   21.25771905415896    4.85489421983787
H           4.83929320248211   20.69825361603816    7.55133101621326
H           3.52529736796146   18.09035266244145    8.00075389769537
H           4.20863878072501   17.65958576714960   12.69286252202439
H           3.33602597539561   16.52774219450949    9.03611784317235
H           2.52470016900921   16.03912458043981   11.93151611727222
H           2.44233831520498   13.48222348273395   11.89246155246998
H           1.47500580415494   11.45387979141417   10.90948045577969
H           0.38279143397737   11.54778479175614    8.68262193446834
H           1.10383448408412   17.00793458659150    8.87422398374049
H          -0.09763984458017   16.95639889080004    6.71122807507232
H          -0.76195023135453   14.75562803064645    5.75691201752305
