105
 SCF done       -168.308407331782          0.000414795024
C           5.33990636724498    0.47845998141128    8.98118211377129
S           5.21787320276574   -0.93226963444736    8.02335093823350
C           4.63046002747807   -1.88291364372239    9.36502405429139
C           4.54090604505406   -1.07841192081797   10.52180097946244
C           4.95063103086886    0.26773972948329   10.28793534517953
C           4.92436342402648    1.20971382477054   11.34415355914991
C           4.50135739281210    0.82419064050317   12.58385478595240
O           4.42662191657613    1.62431262811081   13.67871718069496
C           4.81313571490045    2.96875206659313   13.54545275694840
C           4.08358384481798   -0.53301895325275   12.81860868505439
O           3.68383825042601   -0.77768840882087   14.09274262351956
C           3.24478454930170   -2.07153746173700   14.42015376697742
C           4.10835382813178   -1.45526175095154   11.80428386542082
C           4.31400105667552   -3.23533296440035    9.26211828389941
C           4.38021311790462   -4.04978975884687    8.14946505979537
C           4.04710125338045   -5.41934337073279    8.11880517608313
C           4.18974512938589   -6.00582001089792    6.89085637566618
C           4.64045951902136   -5.12724005373207    5.89346395300313
S           4.88769275875133   -3.52738952959977    6.55519106349727
C           4.87125050489090   -5.41078010625721    4.54927680063418
C           4.70704015233377   -6.63553328713960    3.88928767183829
C           5.00373408288982   -6.58271700463482    2.55067350077747
C           5.41326146184440   -5.31851933240913    2.10101172229177
S           5.42203159641179   -4.18394085620301    3.42990956172222
C           5.75096066462198   -4.99986385105536    0.78914761538276
C           6.15470446389074   -3.78197044347110    0.28883308461630
S           6.35726352276579   -2.35701717601051    1.26842329337128
C           6.93141728994553   -1.37901919301735   -0.07824014983550
C           6.85019973903690   -2.13356093585081   -1.28531643168681
C           6.45225321702517   -3.47772038868019   -1.07521825090851
C           6.33939773391797   -4.35393387843008   -2.15835468522248
C           6.57048664471658   -3.91101712966016   -3.44191947823024
C           6.46063269897398   -4.83181074466479   -4.61753277973545
C           6.88643661492086   -2.55979311720125   -3.64776153055605
C           7.01889856106756   -1.68424650159560   -2.60003380190392
C           7.35891397506985   -0.10703038464652    0.25419780827229
C           8.14094141658648    0.84149782924758   -0.39948788029367
C           8.43130685230747    2.10693721289655    0.14155951308168
C           9.29644668983445    2.86676180223270   -0.60271437907417
C           9.74523185010704    2.22715947389717   -1.76670461338858
S           9.03045295320930    0.63650102864956   -1.89303266790663
C          10.61270117290885    2.70491031162268   -2.74149260140021
C          11.25629171788511    3.95288551330689   -2.80144925232981
C          12.03902148352618    4.11753753860878   -3.90787281011413
C          12.06447898092722    3.00818055297791   -4.78958865880916
S          11.04158040501340    1.73746675607959   -4.13371375220286
C          12.77167587213088    2.97202243462910   -5.96501242709016
C          12.89408975603044    1.94901133782634   -6.93744572868976
C          12.33109135036343    0.67523241289469   -6.85366295608720
C          12.50041506556901   -0.27400320573219   -7.84774237432629
C          13.23381591663666   -0.02600071289776   -8.99956622278586
C          13.82193965736597    1.26484405595864   -9.13152832227940
C          13.66337219464838    2.23890374226028   -8.11367002942643
N          14.22973994579940    3.44815076013647   -8.25091320144208
C          14.92521271809306    3.71927326441751   -9.33088622332655
C          15.47954889030231    5.11144764114978   -9.42155237600878
C          14.47977867658202    6.03438763375728  -10.12232629867131
C          15.08045308606292    2.74712301157445  -10.35231448330326
C          15.89679213020614    2.97303764404067  -11.59203363875805
C          17.35575986568465    2.58464325592837  -11.34192830597757
N          14.53721199473775    1.56040691160168  -10.23346936904576
C          13.43631005568173   -0.98940917532918  -10.06097988675410
C          13.00261648403285   -2.24791854987547  -10.08526796481394
H           5.68970193275068    1.38970204938715    8.53893896516932
H           5.24226054195270    2.21857476574723   11.13845668758304
H           5.86582473643000    3.05754268273366   13.25702549817958
H           4.66918694457898    3.41503791898419   14.52786496353228
H           4.19197350393420    3.49499143510554   12.81310526652699
H           2.37049183856099   -2.36186697652411   13.82778353410117
H           2.96914358975821   -2.03097797865717   15.47259245184343
H           4.03876183152189   -2.81331322744899   14.28228489857327
H           3.79741078244740   -2.47230095343544   11.97698117343888
H           3.97089465972521   -3.71460877836650   10.16989712505848
H           3.71112441309246   -5.93562668900942    9.00109009432753
H           3.97923670898385   -7.04078588256318    6.68972123568595
H           4.37720100341688   -7.52347415102965    4.39773666394416
H           4.93391007454506   -7.42398709414830    1.88332900207415
H           5.68243559536290   -5.81848256605295    0.08485379911972
H           6.05422569303762   -5.38171236782953   -1.98993474841240
H           6.22024443963987   -5.84391209591522   -4.30216047642981
H           7.39975484097881   -4.85143291267193   -5.16909733022378
H           5.68398694760782   -4.48497503448777   -5.29848258869374
H           7.02193367789099   -2.20332909417631   -4.65825720603280
H           7.22495539818980   -0.64695591006458   -2.79577622129574
H           7.09579262814266    0.19125088768858    1.26470020112967
H           7.99016107071935    2.43356708000832    1.06720239910498
H           9.61348466126072    3.85826127485851   -0.33379613888056
H          11.12654979961660    4.69749749386607   -2.03634787822780
H          12.60308338299501    5.00796402776802   -4.12285840447827
H          13.32369333506981    3.87224651893637   -6.20510854801841
H          11.74910839597256    0.40867683505217   -5.98601326666878
H          12.03926833163004   -1.24066346389717   -7.71419320789315
H          15.64645617247111    5.47508408658832   -8.40653098728605
H          16.42929059182413    5.11598838812585   -9.95640571952188
H          14.87250220109290    7.04732022504116  -10.17244379529756
H          13.54217786812069    6.05018391932013   -9.57197257790477
H          14.27581260663935    5.69061292307418  -11.13444887590899
H          15.83712160595129    4.01340997094264  -11.91137147810808
H          15.49186691981492    2.33895423411696  -12.38217197326525
H          17.78584608420838    3.18100396838804  -10.53954545066853
H          17.94591954571074    2.73736741381161  -12.24258181512794
H          17.41593196289342    1.53661432279177  -11.05865632991683
H          14.00912563625763   -0.60277064539704  -10.89293932726237
H          12.43621387886934   -2.68840525121710   -9.28223702952497
H          13.20919562968004   -2.89171891045004  -10.92296019024549
