83
 SCF done       -155.949710067790          0.000932641451
C           0.89033265020048   -7.64201440317535   -7.49438269452853
S          -0.60461476651942   -7.48589678280735   -6.68878486764225
C           0.15800590459637   -7.11462150108044   -5.15486267853841
C           1.55328673266600   -7.20876049018863   -5.29358119967488
C           1.96022863607979   -7.46686713302015   -6.64096966717300
C           3.33448378964781   -7.51785079462691   -6.94982589251003
C           4.28949564426551   -7.36530735931965   -5.97671003321392
O           5.57272077667928   -7.42204055077998   -6.42336651514193
C           6.66137490969573   -7.00497686051434   -5.62801674667396
C           3.87513111918968   -7.23068717937664   -4.60661395986581
O           4.85601536293929   -7.18261356495200   -3.65717859310973
C           4.48470031725889   -7.05418673825424   -2.30423926453917
C           2.53970861667715   -7.17871994741028   -4.29500811009107
C          -0.69353642672002   -6.72046872961557   -4.10873707335227
C          -0.44617949474432   -5.92891056939541   -3.01120176976227
C          -1.41536014234857   -5.54868848775446   -2.04937136783974
C          -0.97030057577843   -4.67515909690939   -1.09997828757064
C           0.38347572796868   -4.31662595578244   -1.24817117538818
S           1.06598428896829   -5.11239687010643   -2.64909342228633
C           1.18280686324879   -3.49749232361741   -0.47204235239835
C           0.84197453956273   -2.71902233073434    0.65023184252430
C           1.88978452674132   -2.01065705793587    1.16366355369824
C           3.11351874657286   -2.19584278932113    0.47800841919201
S           2.88707362516531   -3.32176747701427   -0.84290726589217
C           4.31026223031042   -1.57999425377458    0.76283789317236
C           5.51328063465022   -1.82170695833223    0.06988077632171
C           6.70473637223885   -1.15240159532714    0.27955208628869
O           7.86835847860486   -1.48513847877292   -0.39611918769494
C           7.74862172859596   -2.44798716300578   -1.34965731112485
C           6.51050438475466   -3.10691475912479   -1.60171735974186
C           6.59026247756708   -4.01795356845299   -2.60221030949446
S           8.18782895378532   -4.09447200564807   -3.24937239475602
C           8.74749577807191   -2.87856136755546   -2.16082018848989
O           5.39730096970784   -2.82780257927036   -0.87890658448156
C           6.86394526943865   -0.04240442482012    1.15723760903365
C           8.04141922447046    0.60410529449879    1.32081785858960
N           8.17299962604958    1.73378040338000    2.06875268785369
C           9.37401288387082    2.35156833674300    2.38045776292370
C          10.59763683512654    1.74868516018541    2.41455069892919
S          11.84839865330879    2.84374986642230    2.84203989390631
C          10.72903332223441    4.14002766920224    2.98287065265731
C           9.45141392545576    3.75169052895886    2.70090294784947
N           8.32488318293774    4.55354323041774    2.68275542953181
C           8.28621579362843    5.88545591385970    2.95724685589109
C           7.18380705514928    6.64629070140223    2.79872886458792
C           7.17707652468109    8.04024788391871    3.09824988181974
S           5.74303203319935    9.02684731253867    2.93847924501278
C           6.52372297020816   10.47717038633794    3.43907169828151
C           7.84226426187678   10.23013828140557    3.72515711425368
C           8.19474047194271    8.85608654003847    3.53012820106379
O           9.50484605386076    8.64909566901490    3.81739095366001
C           9.98161494374447    9.86985026957027    4.18910888472060
N          11.34416204255099    9.94319645864284    4.54699101856714
O          11.76878904427189   11.03873241771251    4.87431894738441
O          11.99674409661032    8.91719479937413    4.50519331449078
C           9.04079407348114   10.86327836160920    4.15938997938326
H           0.91185264767718   -7.85050714722622   -8.54516085946900
H           3.65470935841685   -7.67742366308137   -7.96681762205753
H           7.51694233973039   -7.00064260823752   -6.30325648190049
H           6.85349617365520   -7.69405524005127   -4.80382845211483
H           6.51416775490756   -5.99797178638698   -5.23129299250721
H           3.90234690558147   -6.14370718765073   -2.12665806572175
H           5.42194243580961   -6.99921057021888   -1.75179954714241
H           3.91449378059053   -7.92327222521134   -1.96197538896283
H           2.22990065539364   -7.14448337425106   -3.26735901162629
H          -1.73355632231952   -6.99746559603282   -4.24177707269761
H          -2.41894348306625   -5.93488931838246   -2.09174955165535
H          -1.57562500146350   -4.29094627498134   -0.29825171371773
H          -0.15846062922505   -2.69224501445786    1.04446612073313
H           1.82159635756625   -1.35819878060004    2.01692393035468
H           4.32143513080572   -0.87993380312930    1.58115478456192
H           5.81278122276794   -4.63945465270962   -2.99130981381454
H           9.76716804552031   -2.55630910297728   -2.18321938371178
H           5.98830905332858    0.30684425155852    1.67951491772905
H           8.93330219299354    0.27376283536877    0.81420216906410
H           7.34165912298036    2.06978710919354    2.53499190809705
H          10.83207720502459    0.72163213664077    2.22525100799159
H          11.09331677948138    5.11073802822483    3.24823745246878
H           7.49306736140975    4.15387481411927    2.27053784644259
H           9.19946884609683    6.31493103243046    3.33523993585761
H           6.26091963899074    6.22216527280229    2.43004888433358
H           5.97273536205449   11.39248065259019    3.48686968607990
H           9.20317139518641   11.89040687808484    4.41226851522314
