112
 SCF done       -183.760431464578          0.000341177353
C          -2.90450960405370   -1.97321489382763   -9.67569852368221
S          -3.28475808328028   -3.61917165450572   -9.45225159123061
C          -2.34259317000602   -3.73406295645165   -7.97334595505539
C          -1.80906234585573   -2.46610003667360   -7.66377808022670
C          -2.11788469297050   -1.48040076753303   -8.65373278452432
C          -1.65113975554001   -0.16195852857655   -8.49093711184534
C          -0.92261556808844    0.20708032983136   -7.38761926616898
O          -0.52377980544810    1.50734397697012   -7.38721835185565
C           0.10543242963076    2.10471777130533   -6.27621117103919
C          -0.65922727817450   -0.76915140772722   -6.36891284535401
O           0.05100597310321   -0.36242826294512   -5.27477244370211
C           0.36761084022692   -1.30586601319788   -4.27893935187144
C          -1.11813738123513   -2.05668641630242   -6.51543732973974
C          -2.28744403399597   -5.00556546514705   -7.39340559386607
C          -1.43172399847421   -5.58619669134459   -6.47622470163362
C          -1.58416200116735   -6.89892322545540   -5.98184297849773
C          -0.60088902307763   -7.30781783679404   -5.11970469179575
C           0.39002755308362   -6.34411354856825   -4.89629093122273
S           0.04813475378604   -4.90358741610993   -5.82479102580827
C           1.51198386845882   -6.41536628029350   -4.07231502409872
C           1.95356816613002   -7.48469267456036   -3.28917896948902
C           3.12777935663497   -7.22961917065507   -2.61691319495989
C           3.65632358350671   -5.95756892494634   -2.84280060314166
S           2.60450525751144   -5.05800442365710   -3.91403726236762
C           4.85595376350252   -5.43556615515769   -2.35769412273953
C           5.30435059595202   -4.16345532665005   -2.60128059156319
C           6.52959146570317   -3.65420979504733   -2.16683104882891
C           7.01425373096289   -2.35674379114519   -2.34913591687217
C           8.28424000051805   -2.15709660921912   -1.85471421189693
C           8.84418635776669   -3.29963034742559   -1.27663033927239
S           7.71188189075407   -4.62770872669957   -1.32454738589581
C          10.14520368159992   -3.47627513677217   -0.80140061362694
C          11.24345268209947   -2.61861883080343   -0.92869552423380
C          12.42502757688475   -3.18039359358110   -0.51493056065625
C          12.31205192526864   -4.50846602676687   -0.05872413742151
S          10.63519671213525   -4.99016099620044   -0.07350787335817
C          13.39215166934284   -5.27588524358615    0.35356747920589
C          13.53274366232803   -6.59749062989119    0.78342234206471
C          12.68876715942441   -7.70209753805774    0.63292100801088
O          12.83029308197192   -8.82989785687818    1.42957206113759
C          13.93628689730340   -8.89367001880539    2.21029682852629
C          14.91546917912232   -7.85857338752413    2.19922838118133
C          15.96975751166023   -8.12406485426843    3.00994294478573
S          15.78006607889317   -9.64533593216258    3.80283608682600
C          14.26394320867408   -9.92341702459747    3.03143399909410
O          14.75096070473402   -6.73101316311347    1.46629821487679
C          11.63248922016938   -7.87963367134125   -0.28483913702110
C          11.43155700260024   -7.19311723510197   -1.44607029925534
C          10.27958942251796   -7.28314087393290   -2.29241797959125
C          10.15857618342188   -6.39035968646796   -3.34324745128477
C           8.97680799515013   -6.32246174902315   -4.10006493444110
C           8.57896760752827   -5.48435349277819   -5.13671426917457
C           9.36359469388366   -4.42133435718029   -5.83298044532467
C           9.67555223905677   -3.25839970500145   -4.87679511500321
N          10.29024122952990   -2.14407832623020   -5.58586719848565
C          10.63784891503711   -5.00041165202753   -6.47594514342801
N          11.05104543484449   -4.15547059026547   -7.58184908759914
C           7.22615020388088   -5.85261357703211   -5.47516378726789
C           6.35017580278341   -5.32630968678536   -6.35338875368701
C           4.97257658860684   -5.86764372734767   -6.50754813889078
C           4.69502999020769   -7.09323700051747   -5.69551120758487
C           5.57130162106731   -7.59680093537537   -4.80914159444319
C           6.83503803922701   -6.98560620689360   -4.62756378237717
C           7.89372230178250   -7.24811605192410   -3.78582534791724
C           8.06225411482872   -8.19112013802674   -2.74542645209081
C           9.20812389475792   -8.19984185963147   -2.02365020049647
C           4.66353965446874   -6.14361948606881   -7.96120106856261
C           3.61020999697574   -5.66537814371900   -8.59448966172997
H          -3.27756891724087   -1.44705114151957  -10.53108557647409
H          -1.86798245255918    0.58385441710148   -9.23834737483058
H           1.08396740099006    1.66403252008297   -6.07640285938212
H          -0.51095366172497    2.03966875496715   -5.37727035005902
H           0.22935075207718    3.15134879319089   -6.55523433879163
H           0.97483362991670   -0.76612634189048   -3.55357022334311
H           0.94176456633975   -2.14591497219841   -4.68236175465241
H          -0.53128775927630   -1.68576255919232   -3.78396821738646
H          -0.96137933488937   -2.76757010881084   -5.72688242068085
H          -3.02641996227453   -5.69688267918284   -7.78550890395694
H          -2.42546833461490   -7.50640745038293   -6.26580904681152
H          -0.57814259745428   -8.27251130681431   -4.64543514094234
H           1.41768193804235   -8.41533856805447   -3.23566751627963
H           3.61765769407479   -7.93561711786092   -1.96979656396960
H           5.46781065328825   -6.09726175304722   -1.75844742641955
H           4.67716420148122   -3.49200471108565   -3.17548816086902
H           6.43070091532544   -1.59678153085552   -2.83970139330893
H           8.81270633490674   -1.22193504614729   -1.90701579930245
H          11.15997887183691   -1.63341411586865   -1.35105323208344
H          13.37792316806210   -2.68352914078927   -0.56515374265504
H          14.31529899184679   -4.71575992140240    0.46010349237196
H          16.83725763663177   -7.52375766961169    3.18568495241484
H          13.71015195452702  -10.81824733973034    3.22280679801642
H          10.97187891301120   -8.69124967157542   -0.01476804420057
H          12.19814947308144   -6.49954525483315   -1.76585443596332
H          10.96913668431095   -5.70543252050417   -3.54549520981926
H           8.76141588709538   -4.02290051791887   -6.65601845927066
H          10.37760489531850   -3.58627862162085   -4.10629287795805
H           8.73763890488134   -2.97535889368864   -4.37081734233375
H           9.63295493757902   -1.76125300688800   -6.25898850306781
H          10.52746417767266   -1.40539451575963   -4.93202589307570
H          10.41220015973031   -5.99418833593883   -6.87736816264982
H          11.41301349242302   -5.11869602488519   -5.70288982712687
H          11.23999991700178   -3.22399501050339   -7.22101368177427
H          11.90331046918031   -4.51508949530495   -7.99858285106018
H           6.60361920669845   -4.48350876817818   -6.98256434031887
H           4.27486086894075   -5.08140865929025   -6.17697226796660
H           3.72981135887308   -7.55108640984263   -5.85482260965689
H           5.32498132262503   -8.47472947267868   -4.22934534867884
H           7.26491632905692   -8.88784003895259   -2.52911742901086
H           9.32711942558073   -8.91112888099156   -1.22232533621965
H           5.36400697719590   -6.80294259910451   -8.45502055952941
H           2.89905132466235   -5.01442214764669   -8.11114166029368
H           3.41033285447977   -5.90735850970195   -9.62458653929542
