92
 SCF done       -158.605036183320          0.000623179914
C          15.40129349209368   -2.97022746955320    5.45550236715256
S          15.02514411017540   -4.60004183015338    5.77316848006134
C          13.34760208686113   -4.39994728276516    5.29809071057937
C          13.11411891164913   -3.05745723716649    4.95625673379847
C          14.30111282456340   -2.25864077953023    5.03080340371127
C          14.26180261730786   -0.88161543215925    4.70178223850462
C          13.08177449031308   -0.30674230908833    4.33183505613432
O          12.90704558281397    0.99122685641659    3.98339206930775
C          14.03207280120048    1.83357532802322    3.97168121098682
C          11.87458164061772   -1.09508859673883    4.30436696685230
O          10.76959069821726   -0.40492695704941    3.94738595732851
C           9.54961439927628   -1.09668966504963    3.83236865891942
C          11.90119461835229   -2.42592209850517    4.62685364427577
C          12.59112243444416   -5.58483469110215    5.32189487061045
C          11.39719719360711   -5.97082049649365    4.76638544641121
C          10.88158071342271   -7.28852848101312    4.90114311496355
C           9.73214607195342   -7.53125205047403    4.21856156005539
C           9.24937884759342   -6.41525398574664    3.49620656286916
S          10.32141274632020   -5.04806490336752    3.72282442749588
C           8.11967797045782   -6.33561854264426    2.71435871123091
C           7.20187066481937   -7.37284245924340    2.42088851892434
C           6.18363987066193   -6.99778170636872    1.60761105717072
C           6.21416463714418   -5.62843537096767    1.20789403085208
S           7.63011240425917   -4.84709821634618    1.91676513550123
C           5.33349549516265   -5.05286188125329    0.34525918037070
C           5.30230009119828   -3.69584910263515   -0.14518444109036
C           5.53070126712075   -2.54921301845623    0.69435773551779
C           5.61010499252745   -1.29811650563562    0.10717284266065
C           5.41958737575408   -1.11911007110849   -1.26850947884063
C           5.09105227370603   -2.24531954564089   -2.07985016587079
C           5.03185690399599   -3.51378602246435   -1.48779550162515
N           4.85438486201464   -2.09976373921209   -3.40151750410379
C           4.94620158195145   -0.89126185341708   -3.88978808277408
C           5.27608074763336    0.22232440941780   -3.08895235070754
N           5.50712525125132    0.11669173146268   -1.80772195408480
C           5.54847373719861   -2.71037728096826    2.12159820183249
C           5.91861807053953   -1.77112940865062    3.03154320718218
C           5.90020990627089   -1.99133977668270    4.41994129199825
C           6.20306145154915   -1.03543020571238    5.35640741201109
C           6.24731030774500   -1.19605256831774    6.76258554566603
C           6.56557187948694   -0.06231743407643    7.44763225107281
C           6.78181109686304    1.06393620482390    6.62376750183954
S           6.57746872735355    0.63296852597754    4.94193118859349
C           7.09098350944565    2.35398485731731    7.01421907313031
C           7.26429510687726    2.84477365622938    8.32590157421662
C           7.54177192583358    4.17736904491415    8.38152965607885
C           7.60168082176835    4.81441192517126    7.11852421053436
S           7.30088620959144    3.64453185071542    5.84900652253588
C           7.84562345527845    6.15159659491382    6.90903677830485
C           7.89938518024548    6.83943862587397    5.69326282907533
S           7.66974646557058    6.06488204601827    4.13033952532665
C           7.87970963105098    7.56527567353767    3.33129697021260
C           8.11610965054183    8.61155321791638    4.22922238791735
C           8.13059202524248    8.21547123485960    5.55006591917281
C           8.27393146044514    9.84825312887662    3.42253861085622
O           8.48976613507792   10.97265813943794    3.80659726400884
C           8.10572552504895    9.39281969026057    2.00053606590070
C           7.87525751019350    8.04251650420748    1.99132586065649
C           8.19375929089753   10.32793424901065    0.91845474956505
C           8.07029288470222   10.03625505042935   -0.37805470793750
H          16.40210774279881   -2.61364350253159    5.59646101393276
H          15.17939541405487   -0.31911278832461    4.75797206295692
H          14.47176139399987    1.93058904949640    4.97007106639824
H          13.66907851887767    2.80521343426307    3.64127087823374
H          14.79573976202978    1.47426894282414    3.27397026726946
H           8.83474661930401   -0.36374055383709    3.46415503973026
H           9.21074479267263   -1.47823589621702    4.80128607316574
H           9.61743551666593   -1.92895181369469    3.12482297325103
H          10.99167167993538   -2.99578536160051    4.64472387691794
H          13.09959696535206   -6.39696060918876    5.83304590598982
H          11.39102900839681   -8.02055919405128    5.50344350275387
H           9.21822788829758   -8.47552684407276    4.21568387699513
H           7.32719259635464   -8.36563473889663    2.81484190541369
H           5.39553794897308   -7.65092514582444    1.27619656822770
H           4.62873617878408   -5.72970210845943   -0.12344524971163
H           5.77586087355292   -0.41287288174060    0.69960319217002
H           4.81355612899372   -4.35891777915658   -2.12355402983074
H           4.75774177619465   -0.78112463912259   -4.94972434080974
H           5.35043544393328    1.21416664718594   -3.51532381528332
H           5.19589609315003   -3.66113422337069    2.49810503121405
H           6.26476924140114   -0.80026171591059    2.70484684953508
H           5.63227835892948   -2.97565420028490    4.78113504141010
H           6.04559871903672   -2.14787230321159    7.22191787836715
H           6.64645061387416   -0.00576838439982    8.51839243105627
H           7.17791915645375    2.20908543968151    9.18867965987088
H           7.70212337459115    4.72771823258707    9.29196778682136
H           8.00957522824228    6.75402585214637    7.79391717590136
H           8.29406045841773    8.86442889020648    6.39132122841068
H           7.71415397337172    7.42571078637144    1.12623404270146
H           8.37589937370570   11.34875527286317    1.23099023232171
H           7.88614710263662    9.03295019245713   -0.72255727396130
H           8.14494742158660   10.79778237227821   -1.13425195468684
