88
 SCF done       -165.064401469803          0.000954814112
C          11.86544999726032   -9.64887084748592    2.69046670469624
S          10.87345685663860   -8.47423840991945    3.43159774258835
C          11.29778412231385   -9.01181177395841    5.03829667830330
C          12.20208827246542  -10.09497909056685    4.95545445229746
C          12.51895358079007  -10.44742938935938    3.61031419907403
C          13.41735694647584  -11.50305447672365    3.36849305754210
C          13.98913574790267  -12.20211137362595    4.40346642472940
O          14.82577119920789  -13.19899080860089    4.00882349534171
C          15.62854055868632  -13.92085015360313    4.91539155339805
C          13.65839661053136  -11.85207587330708    5.75572264511506
O          14.23818403040547  -12.58959419416050    6.75067041207791
C          13.94010838647827  -12.28377959791921    8.08960385786910
C          12.78645973036898  -10.81660123106994    6.00384719710882
C          10.80001809982488   -8.42483515975946    6.19778545090737
C           9.93418409296799   -7.35508407384051    6.31400387083730
C           9.48396369712553   -6.79382888684174    7.52636802308431
C           8.64617200367553   -5.72261700522356    7.37355994401910
C           8.39261302906074   -5.39113265636449    6.03343174813541
S           9.24168153443081   -6.48053684719888    4.96283757868174
C           7.59518734505735   -4.36008449407689    5.54166428208944
C           6.90259248685950   -3.38670835214389    6.27493598528465
C           6.20071697433769   -2.50766480093009    5.48862224455261
C           6.30846903344974   -2.75962696603805    4.11313170181254
S           7.34178458072622   -4.13433953889241    3.82653922751881
C           5.67818909335138   -2.03263984374041    3.10717899005157
C           5.81770469162695   -2.27791215600292    1.74973836146357
C           5.15944721656154   -1.54443144628040    0.73093191549183
O           5.39082835922834   -1.80107888012069   -0.60589352494126
C           6.25339401614084   -2.81147590081639   -0.88755846033163
C           6.88743319990887   -3.57200826433353    0.13644616135351
C           7.70500941068495   -4.53982302158293   -0.34916386153165
S           7.71354071976803   -4.53558189982769   -2.07140358679465
C           6.60458764004706   -3.21763499238398   -2.13465949467441
O           6.67238601962298   -3.31603009892432    1.45224523432822
C           4.23574158626612   -0.54656961563217    1.00311364528696
C           3.58230089184732    0.23038231481063    0.05384175316187
C           2.61631326566425    1.18314251183426    0.32543633299551
C           2.00208496345020    1.49900906553030    1.53843192448646
C           1.07705201102036    2.53755588009377    1.73246088564553
C           0.59426646248254    2.64968502457394    3.01410450889660
C           1.10723508257759    1.68724999862742    3.89263099549164
S           2.22463786117055    0.64420735415700    3.05042149863353
C           0.86131776136059    1.49148804720083    5.24823225447357
C           0.08672213124850    2.26801351036759    6.12464749936507
C           0.08186290946189    1.80581368564189    7.41261063070532
C           0.84426382582911    0.63311444284029    7.60710456310203
S           1.57363291809752    0.13571299403240    6.09721620357694
C           1.02912971599622   -0.05524331176268    8.78500546293907
C           1.77109338354127   -1.24357538457594    8.88184848687838
O           2.31679436222150   -1.81285936827698    7.78802483693200
C           2.95761999309662   -2.95193562105061    8.16198241814628
C           2.83331717839518   -3.12150476810552    9.52569719182255
C           2.07544091660044   -2.03719830819038    9.99432654191338
C           1.66823367118156   -1.76747717152263   11.39020859083533
F           2.16026336083214   -0.60197922557080   11.86710566260170
F           0.32932837304415   -1.67249649782472   11.54029528064854
F           2.07547451173925   -2.72062392527041   12.23989093907810
C           3.58254877077849   -3.73813941109683    7.13984476295967
C           4.29303837308818   -4.84622178951331    7.35012956041760
H          11.92416649072434   -9.69805441958237    1.62178378820487
H          13.67168022181684  -11.78041618289549    2.35859251370007
H          16.24435216294917  -14.56650572447507    4.28899908564826
H          15.03008848775766  -14.53541126507126    5.59079382066972
H          16.27382920780526  -13.26206647701941    5.50039263099805
H          14.25030546289818  -11.26659203435541    8.35033390800403
H          14.51118630906776  -12.99635056761146    8.68316844351082
H          12.87366597080840  -12.40789145542092    8.30415369286606
H          12.53827764929508  -10.55065356335472    7.01789579482461
H          11.13826897986612   -8.85347292429652    7.13239723467843
H           9.79155621111627   -7.19139142624050    8.47772009888046
H           8.21043069182666   -5.17520314689661    8.18964486737580
H           6.93263877652536   -3.33961868534422    7.34809484608841
H           5.61080265455760   -1.69279819071839    5.86891905791861
H           5.04544764607110   -1.22560214948404    3.43427220354649
H           8.29199409135975   -5.24222267104150    0.20430159168860
H           6.27815367530543   -2.82312767770576   -3.07366115056842
H           4.02818886503107   -0.36166864014071    2.03962059245471
H           3.86510186939047    0.09505788048200   -0.98072049899807
H           2.26572841402450    1.77333221797843   -0.51271120554190
H           0.78797944476091    3.18891414066627    0.92580912069440
H          -0.11819878761404    3.39137297244520    3.32777356079579
H          -0.43743747173978    3.14817304326053    5.79688349852420
H          -0.44715181603485    2.27026905402752    8.22555411029303
H           0.57825047340124    0.32520763111683    9.68769999782881
H           3.22537985289771   -3.92220736174783   10.11773245270321
H           3.43705220792583   -3.35974014161807    6.13731101651002
H           4.45744535048988   -5.23886310757306    8.33834750948732
H           4.72575334271306   -5.39531705310563    6.53370477471986
