86
 SCF done       -159.948146096886          0.000279049053
C          13.96235586829831   -7.90413680369160    4.94647886431949
S          13.40235088504501   -9.39631482332726    4.35146441474039
C          12.55052244270302   -8.64840649892571    3.00826891001559
C          12.79428785643080   -7.25809648640978    3.02045397088203
C          13.56970376390814   -6.84585231452039    4.15030467100423
C          13.85527443276175   -5.47990289632668    4.33935399722744
C          13.43287401058246   -4.53292325699651    3.44006194678029
O          13.76813497673148   -3.25466263999861    3.75702141702856
C          13.18821264550223   -2.14696571568017    3.10378979946273
C          12.74442215996642   -4.95801643727779    2.25367120363681
O          12.41984341494505   -3.99762758431681    1.34322755392758
C          11.68845312384309   -4.36091098598918    0.19446986861994
C          12.45949310852349   -6.29015832695117    2.06377425488101
C          11.77266092236338   -9.51906619177542    2.23696683330336
C          10.71865553695550   -9.30184915646179    1.37083703019254
C          10.01831227404769  -10.32225889369580    0.68883992376444
C           8.96525374046785   -9.88809667240855   -0.07205825390671
C           8.77849330933674   -8.49897681212326   -0.03028970829113
S           9.95767450754743   -7.76249563704441    1.02408131813000
C           7.87655045706304   -7.68206068587172   -0.70562071459241
C           6.82198537589349   -8.00787739196000   -1.56844211068682
C           6.16696406899520   -6.91222293071790   -2.07280097053260
C           6.68125045770812   -5.67917199620237   -1.63550230456715
S           8.01669934670732   -5.94570570229732   -0.54168854220821
C           6.24886124282459   -4.41165251875371   -1.99145229899548
C           6.80709460224546   -3.21277462017779   -1.58207234022589
S           8.19913378636923   -3.04029339799278   -0.51867257510985
C           8.21211783528102   -1.26640461528573   -0.56556849702344
C           7.14755285843885   -0.83983518775791   -1.40130386875995
C           6.40754719324940   -1.91873235151164   -1.93650473086029
O           5.43625725026173   -1.49210282798752   -2.75705696772042
C           5.54709547491430   -0.13651847410561   -2.76783667733217
N           4.66469060427373    0.59812560062246   -3.58053441988519
O           4.82159353017946    1.80735865342655   -3.60057812436161
O           3.82266347427288   -0.01400714132259   -4.20885752396523
C           6.56862192938365    0.31710078427318   -1.96443930520883
C           9.21477764374505   -0.64777218115429    0.14438958514334
C           9.45699680157905    0.69941053809651    0.41178800214427
C          10.59915753910790    1.18090780125328    1.06741698891701
C          10.61671986993139    2.54383331928440    1.24666020571251
C           9.47433240908678    3.18546139088079    0.75878938565116
S           8.38328978339720    2.02372746577358    0.04682553323699
C           9.16079118682419    4.54632309077177    0.79430957390870
C           9.96877434150500    5.60841738812481    1.22003657198437
C           9.36414171168999    6.83454880845953    1.11696078854869
C           8.04606073428037    6.79236423486225    0.62428008555514
S           7.60352160888958    5.13520634004998    0.27335500333996
C           7.23196483600032    7.89807018032703    0.44440263020197
C           5.90053969171917    7.94217052025865    0.04287329262035
S           5.13781610263107    9.52820026418402   -0.14170265894043
C           3.64904703681598    8.79591025872252   -0.56093279056239
C           3.73893226267658    7.39569279389740   -0.55292675788354
C           4.98457406634816    6.91077543629979   -0.22679253306543
C           2.38786964663829    6.87623282945479   -0.89468525559805
O           2.01844266797819    5.72941288813000   -0.95496669234755
C           1.55944246087503    8.10755036351496   -1.11898106882760
C           2.34110149824512    9.21691889981242   -0.90628688158569
C           0.17994922856222    8.00221304543483   -1.48480279597895
C          -0.65003647826742    9.02437038513860   -1.70872727046086
H          14.54900424994881   -7.86868438476037    5.84244484059525
H          14.41382406147996   -5.15928511105014    5.20362264196309
H          13.50007281688875   -1.28207754541013    3.68989766928878
H          12.09757647422854   -2.20711226223141    3.09793163731618
H          13.55263830492372   -2.04346225175546    2.07955190499032
H          11.50790369377802   -3.43025558003503   -0.34125375884092
H          12.25865258724814   -5.03911824573266   -0.44644678649720
H          10.72948636486486   -4.81947570974114    0.45285156211083
H          11.99752522904348   -6.60407333695678    1.14767953108552
H          11.98216412387241  -10.56910728464369    2.41246936634883
H          10.31539269941900  -11.35301403440995    0.77160403062602
H           8.33869593667223  -10.53214733331752   -0.66258620106512
H           6.56438929338011   -9.02591232482922   -1.79970721129708
H           5.33494334580087   -6.96442964666314   -2.75254179901064
H           5.40068233075848   -4.33905068452117   -2.65908567732736
H           6.82924168876034    1.34563227271353   -1.83529730875209
H           9.93861643661339   -1.32286257127897    0.58724581524637
H          11.38669402326270    0.52075586065344    1.38703655601402
H          11.41627150316323    3.07767425371128    1.72734689371231
H          10.97136908831264    5.45891492434422    1.57792938083290
H           9.83232392754940    7.76376600216362    1.38983626774394
H           7.69617555195898    8.85323308434829    0.65713011678961
H           5.23635749170485    5.86829646527360   -0.17177889111306
H           2.02978789658496   10.24263025336668   -0.98338946486335
H          -0.17523647198003    6.98333824436217   -1.57629528276158
H          -0.33006510208793   10.04927052623540   -1.62668367586094
H          -1.67808266435109    8.86257329612668   -1.98081114257797
