83
 SCF done       -164.765308192775          0.000626494960
C          -4.78307173596783   -4.39567997649085   -3.91900763243826
S          -3.34079938019258   -4.83294013842726   -3.12036067248055
C          -3.30466780610058   -3.35713783917446   -2.20204212040504
C          -4.39641067378535   -2.55046018962679   -2.54333596932631
C          -5.24557771574312   -3.16327568372551   -3.52047674549153
C          -6.41529925845666   -2.50072534016584   -3.96887192691986
C          -6.73525365884798   -1.27703502776279   -3.46120844733772
O          -7.81621424430410   -0.53487656064770   -3.80172688248858
C          -8.69987900208249   -1.04965178913827   -4.76654543663264
C          -5.89061256041434   -0.66349226597323   -2.46277946191301
O          -6.33139251067484    0.54374680394061   -2.03803245546921
C          -5.57197710653443    1.23432760256752   -1.07648792190291
C          -4.75945379952261   -1.29020524457594   -2.02016066010305
C          -2.21820240628543   -3.02528128886868   -1.32867720245269
C          -1.41601481688169   -3.91245968509851   -0.64706848875017
O          -0.32439822782868   -3.50020784558165    0.10376001284514
C          -0.13880511173552   -2.15839208782026    0.19724920754685
C          -1.00039490053572   -1.23716380009079   -0.46216033458545
C          -0.66344790833372    0.05718527322133   -0.23951360729590
S           0.72234272226563    0.17115440327537    0.78021899507378
C           0.83973015346633   -1.54549393216009    0.90764415132345
O          -2.03921010542393   -1.65685105012855   -1.23895539973461
C          -1.63645003966360   -5.31352893057936   -0.57821501274699
C          -0.81165366559006   -6.17762119108486    0.07030092471156
C          -1.08031838209866   -7.56319681748414    0.14634592932813
O          -2.15407627756923   -8.10014963855764   -0.50174494437713
C          -0.41844041665648   -8.58547921212662    0.80420591712542
C           0.72148023192543   -8.89548752089890    1.66637799357841
O           1.58500626821258   -8.19616579260803    2.13233347681644
N           0.61291507781139  -10.27147709158502    1.86632680282769
C          -0.46773871391902  -10.88554077285074    1.23028599907720
O          -0.72375590258362  -12.06195705082090    1.29058354817279
C          -1.13042611322981   -9.78063838457995    0.54161617112855
C          -2.19908602677157   -9.44661995918488   -0.27750647272886
C          -3.20496047975383  -10.24943275183458   -0.84978763728790
C          -4.15489747959927   -9.74990015575862   -1.69961677219488
C          -5.19518768055924  -10.44784240604400   -2.33017648369403
C          -5.56498567599039  -11.77009624883351   -2.20955868370089
C          -6.64079737141674  -12.36817115914128   -2.91453430415839
C          -6.84425070039816  -13.68452207658240   -2.63097532150013
C          -5.94107887436380  -14.20470177345129   -1.67880388007303
S          -4.81941553823945  -12.96236373628982   -1.16667374615820
C          -5.88101607192852  -15.48544677575377   -1.16438838626912
C          -6.70131538203185  -16.59341072670672   -1.47823689733020
C          -6.38976935503327  -17.72139759872476   -0.78514184631440
C          -5.30479344831088  -17.56982521692344    0.11832569751582
S          -4.69217058108150  -15.92777554115056    0.04311877139350
C          -4.80017640953378  -18.54247814220446    0.93878229130374
C          -3.73280442448403  -18.41912324218051    1.84593508093235
S          -2.79159275067695  -16.96030099013924    2.11804290696321
C          -1.78439294265222  -17.68257327623001    3.30402080251404
C          -2.13353818644970  -18.99834218721801    3.50655801778591
C          -3.22786794151438  -19.40061284217755    2.68322869855081
O          -3.54938761912699  -20.69205956462235    2.90297080739215
C          -2.67456871815072  -21.11911339287936    3.85473853359019
N          -2.78156091763592  -22.46067593097770    4.28961162633128
O          -1.98107084941790  -22.82248050186800    5.13197085401923
O          -3.65118789536183  -23.15027521239226    3.80236543039061
C          -1.79458659994433  -20.15279427606144    4.26364640286010
H          -5.22000498790646   -5.06676756014808   -4.63106913905219
H          -7.02732950482016   -2.99123374902468   -4.70768651047676
H          -9.47490909926077   -0.29516066329650   -4.88810694940492
H          -9.15526235473372   -1.98785742913627   -4.43313876628789
H          -8.19701678804189   -1.21180077125562   -5.72543844557457
H          -5.51280092442272    0.67743480886516   -0.13583895534477
H          -6.09552779677355    2.17363256437477   -0.90790833983888
H          -4.55995521185878    1.44104414749838   -1.43870894859233
H          -4.13098299517482   -0.83564697675596   -1.27568115669665
H          -1.13694050197470    0.93946358229892   -0.61609849577747
H           1.61489167916774   -1.99802980247039    1.48920281525396
H          -2.52938464730157   -5.70485138435047   -1.03570097624649
H           0.08869921767111   -5.83914422408925    0.55801481151778
H           1.27076292428631  -10.78778666574831    2.43218205845120
H          -3.15734081558906  -11.29294011550948   -0.58350694104328
H          -4.09397595576320   -8.69299542624302   -1.92680295259007
H          -5.80840476262716   -9.86925836264961   -3.01038675159286
H          -7.23213624169544  -11.80144175071101   -3.61237002576865
H          -7.61584431175849  -14.28766299038317   -3.07439514307145
H          -7.49327842141165  -16.52679611941869   -2.20233236866783
H          -6.90127358467219  -18.66203425216851   -0.88729810859077
H          -5.26166581938424  -19.52067388843705    0.90234922255409
H          -1.01188966546690  -17.10745553507416    3.77024715579001
H          -1.02655152274654  -20.27207368535003    4.99925961427493
