101
 SCF done       -174.358487849801          0.000644381175
C           6.69224779009685    0.49076698478169    9.45965899418067
S           6.66721808335435   -1.11473235902777   10.02618280955047
C           6.79679166766506   -1.78548980582023    8.40827604583604
C           6.94406630303186   -0.73516677227866    7.47969693603725
C           6.84090713703721    0.55603003964567    8.08866257596001
C           6.89815813446153    1.71161719184558    7.28458501306229
C           7.09168352725501    1.62458589582841    5.92956061510419
O           7.11112631245130    2.81597607525971    5.27275417252473
C           6.94658152025241    2.88998510017800    3.87352677950223
C           7.31544885811215    0.33508106647909    5.33715697772021
O           7.60732721274899    0.30597424958003    4.00610198482614
C           7.76662435048584   -0.94075671214642    3.36861831129754
C           7.25642424705052   -0.79756398295768    6.11345028093880
C           6.66207293629461   -3.17775069354801    8.31696569083119
C           6.29646863469848   -3.98814531759864    7.26245323832186
C           6.15129744943875   -5.39369404118907    7.33000555815136
C           5.70467816992304   -5.98196492659547    6.17773967077184
C           5.47847767508164   -5.07177286675407    5.13298142806744
S           5.81648789737021   -3.44362389927097    5.66754918424622
C           5.10167837853452   -5.27047454077256    3.81082653657907
C           4.72519113789042   -6.43402351829032    3.12343300139100
C           4.44624247734863   -6.22367720563743    1.79785440807045
C           4.59873966276811   -4.88834997262892    1.37618060029987
S           5.08959345126047   -3.89455082651983    2.72799520942003
C           4.41498507514412   -4.37489959868316    0.10598181301960
C           4.63256984555970   -3.05816830045969   -0.27959295284188
S           5.22032800129021   -1.77615856826084    0.77403955302542
C           5.22478724600313   -0.52660545261359   -0.48323627279289
C           4.77185153776850   -1.11599536973983   -1.68990955327173
C           4.46064071519552   -2.49146655556142   -1.54282984566248
O           4.05505745589269   -3.02971204046489   -2.70437521469994
C           4.10714693270129   -2.01282631300531   -3.60941969736857
N           3.73611168302811   -2.29790471262063   -4.92559928815613
O           3.80277213033508   -1.37617092701869   -5.73323984757194
O           3.36873398991266   -3.42724551186880   -5.19530798288401
C           4.53700417932229   -0.82728330832314   -3.04774261607722
C           5.66093662672986    0.71688073334395   -0.07933874458961
C           5.73397585671629    1.94646541640531   -0.72554661416801
C           6.25285090932548    3.10416706739114   -0.11977394387678
C           6.19777162292616    4.22688063334516   -0.90416694043853
C           5.62455014886582    4.00905332060798   -2.16442982700565
S           5.17436032632957    2.32519721011501   -2.33431572604037
C           5.38964714166900    4.93686136653549   -3.17380384801965
C           5.70310678559086    6.30859935742897   -3.15592532269797
C           5.31069029605323    6.95644885401057   -4.28869924527627
C           4.67025023198849    6.13359721990963   -5.25369225535618
S           4.57833361867182    4.49447521231483   -4.66229604427364
C           4.23018169303772    6.62558395605834   -6.45812510705358
C           3.61376378330022    6.02473658666193   -7.58281664011856
C           3.35803832805801    6.83359445261861   -8.69636308567506
C           2.77256040843896    6.34694365228581   -9.84779957551637
C           2.40590764951039    5.01337225353423   -9.99816501637847
C           2.66385662147908    4.14583361132266   -8.89715152252604
C           3.22480454499434    4.65345111000242   -7.69027615677139
N           3.36348071476731    3.83536221359789   -6.64014555138994
C           3.04007262756155    2.56440580612920   -6.72557107556679
C           3.14583270031627    1.74872215988690   -5.47655144497132
C           2.04055215809538    2.12152580704622   -4.48654267910573
C           2.60875485745799    2.03511872426078   -7.97202349384070
C           2.33714397416107    0.58052804474911   -8.20788699780707
C           0.93192789229449    0.19489771047126   -7.74024809142173
N           2.41470193678541    2.82928384098737   -8.99509839302810
C           1.79792593961366    4.60461384053010  -11.24691938695007
C           1.28185728927507    3.41370485390480  -11.54607878271801
H           6.59815011412541    1.30492389908551   10.14991064432049
H           6.78567454233985    2.68655856938346    7.73033466683151
H           6.08767210939853    2.30405241514817    3.53727175189931
H           7.84327397585311    2.56101844750787    3.34304506758127
H           6.76732980954305    3.94594421639191    3.66740453139204
H           6.87304205148914   -1.56357154416456    3.47135970557357
H           8.63709770954557   -1.47951600382007    3.75383431784210
H           7.92440070199708   -0.71097917985456    2.31590505794480
H           7.48627676967258   -1.75094099298128    5.67691598403797
H           6.77344019352265   -3.70019782278356    9.26134166721748
H           6.38597436541959   -5.93460489149405    8.23019879001828
H           5.55063584009396   -7.03944236875534    6.05744527474134
H           4.66389488796330   -7.39096761293013    3.61053618692611
H           4.14447264572526   -6.99639843104638    1.11293034398453
H           4.07904117788209   -5.04970554587957   -0.66981068923411
H           4.65722599635757    0.09618319646066   -3.57253646372548
H           5.99868937730695    0.75034071722819    0.95110905459374
H           6.65313865162418    3.08395694654242    0.87885952042268
H           6.54891179522735    5.19446741265946   -0.59446888012681
H           6.20270974246676    6.78463538505326   -2.33047831338791
H           5.46283331824373    8.00708051616607   -4.46697499086001
H           4.40985440083006    7.68962027120691   -6.58088586568876
H           3.63155695245379    7.87842240615445   -8.64993039725937
H           2.59524817902601    7.02887622757583  -10.66801737786806
H           4.11230330209465    1.96237235734809   -5.01751896993447
H           3.09953399504779    0.68798547817144   -5.70881605779336
H           1.05858057263042    1.92970154333753   -4.91378365394899
H           2.10433020725581    3.17618571485029   -4.23264906227696
H           2.14361987882813    1.53667930028822   -3.57594225559922
H           3.07353203610774   -0.03479201164885   -7.69041279042793
H           2.41646710191451    0.39889217127497   -9.28088064250278
H           0.82905581154303    0.33240884746692   -6.66737154165822
H           0.74398411692875   -0.85057877632544   -7.96982157971624
H           0.18315086633311    0.80377402941341   -8.24307442020783
H           1.76440444520034    5.39265646876315  -11.99207856473245
H           1.28823773584350    2.60537495224414  -10.83883002926922
H           0.84579613248242    3.22928617306500  -12.51387262463614
