93
 SCF done       -162.058285237085          0.000302733839
C          -4.83424922938753    2.54320208610127   -5.35639668932035
S          -4.45216211446547    2.17000119916867   -6.97322903255803
C          -3.16433217073279    1.06375923996291   -6.51500602059652
C          -3.11224100391516    0.97195890976011   -5.10807569417898
C          -4.05040438022973    1.83928373455175   -4.46377205345620
C          -4.10134721950515    1.88856318802868   -3.05767230055294
C          -3.28916142867812    1.09564674299683   -2.28586730850261
O          -3.45183904304965    1.25567294696201   -0.94572379914624
C          -2.56830284711891    0.68254028469400   -0.00757030531909
C          -2.40283120669044    0.17017791502884   -2.93258391475133
O          -1.65704499094506   -0.64673515016853   -2.13316046664568
C          -0.74444144649618   -1.53797709429224   -2.72990317722985
C          -2.34214196014464    0.12035502497419   -4.30556852059491
C          -2.43934469227357    0.53206848852985   -7.58542754713951
C          -1.21394959690889   -0.09900773381062   -7.69255006127101
C          -0.65914259285248   -0.51005636565669   -8.92378724313557
C           0.60159774195921   -1.03931560198632   -8.84047144020663
C           1.11136985060448   -1.07735258425122   -7.53660778931528
S          -0.05373835121961   -0.41743267249169   -6.41591287453896
C           2.34552149546189   -1.55099261005516   -7.09285122164122
C           3.41657298590946   -2.03101900423009   -7.85150194565748
C           4.50665347753132   -2.40049638747866   -7.09627961759383
C           4.33341818009045   -2.23710064944074   -5.71957666651816
S           2.74114789920870   -1.59101458403085   -5.38942625139018
C           5.25979905849910   -2.51310380925540   -4.71172963671976
C           5.01361056071883   -2.38581840514302   -3.36878869878701
C           5.94915519775759   -2.61502401156038   -2.35762215048992
C           5.73461786057087   -2.53960261082847   -0.97928649156580
C           6.85595851150076   -2.78970611239087   -0.22113117003823
C           7.99727796594491   -3.06175003643477   -0.97766141293873
S           7.62059287457793   -3.01959033320737   -2.68487832432824
C           9.29245548660247   -3.30154971871719   -0.51920283710217
C          10.44591914161143   -3.50230651353395   -1.28544853538240
C          11.58446104498376   -3.65354928964316   -0.53701193713681
C          11.37074488456082   -3.58593707269417    0.85188168255754
S           9.67411724439957   -3.32763136176844    1.18758420839457
C          12.34864891780285   -3.68972110520766    1.82582994833844
C          12.11510372376398   -3.59275584137407    3.20128210397101
C          13.10461192952243   -3.65952600548909    4.17732194977968
O          12.85754021150744   -3.29656968747229    5.49217472703841
C          11.57385076136339   -2.97721274531596    5.79593141775138
C          10.53816756696645   -3.01692333318893    4.81751531356294
C           9.32271801379301   -2.69014810325713    5.32005322421786
S           9.42280007159043   -2.32518907669483    7.00287164352821
C          11.12170284968723   -2.61862886182360    7.02452760021206
O          10.79281013120948   -3.34062186872860    3.52340728884592
C          14.46550538306273   -4.01209353400832    3.99242535462215
C          14.98522858850077   -4.83200475692844    3.04195944512945
C          16.36789078391725   -5.10727532818245    2.85074439453572
S          16.77373458398424   -6.59176810572706    2.01834698492390
C          18.45022703463276   -6.27674895754407    2.17788988348215
C          18.69800605267431   -5.09338198390698    2.80452920864178
C          17.51573785959577   -4.40651713225959    3.18646638679878
C          17.57544434027569   -3.05209101626666    3.81460689210959
S          16.45914440169215   -1.84993090060252    2.95954243152519
C          18.99281227046086   -2.48204226051347    3.82985427126706
C          20.00422515979107   -3.54990103969892    4.22610865050672
C          20.08686419481169   -4.59388421073841    3.10743567179449
O          20.97822821995505   -5.64300572380038    3.40645446115653
H          -5.60847733090675    3.25008318452665   -5.13578185678460
H          -4.78993826427148    2.55570923809331   -2.56510605294308
H          -2.65643371704877   -0.40523064782236    0.02284859102829
H          -2.87285885227354    1.09827636801100    0.95307015072534
H          -1.53047729726821    0.95636343351058   -0.20863740211926
H          -1.25600434038088   -2.28895385032004   -3.33928124887179
H          -0.24066644910211   -2.03160026613970   -1.90010509954439
H          -0.00693147709900   -1.01326899724190   -3.34486369523675
H          -1.71098308114737   -0.60544377924754   -4.78093894120688
H          -2.90026646581836    0.71935913082169   -8.55028496082869
H          -1.20584359074540   -0.40334319828615   -9.84428964390499
H           1.16032396385304   -1.40165455730530   -9.68460439597036
H           3.37900072088858   -2.08943712216852   -8.92443024668891
H           5.42236219418055   -2.78664711069659   -7.50845330165233
H           6.23740099325062   -2.85079654462087   -5.03227799410261
H           4.02402354532623   -2.08203596401613   -3.04946338418626
H           4.76818498766918   -2.30309447647095   -0.56981417555711
H           6.88660605923423   -2.77380157711397    0.85418284393379
H          10.41213721599252   -3.52206874246320   -2.36106087886376
H          12.56623663770444   -3.81115482623655   -0.94701023663463
H          13.36739833553454   -3.78408537085427    1.49239793335288
H           8.38765419412742   -2.64364254072968    4.80320946275846
H          11.68209800738996   -2.51153639220829    7.92922388396015
H          15.10553516876236   -3.63602526264645    4.77698773092995
H          14.31751389580280   -5.39177512112016    2.40217910336261
H          19.17068549155084   -6.97769759891507    1.80662769028486
H          17.18117192775064   -3.08103805570275    4.83439960229537
H          16.99634205231871   -2.01403595770392    1.75249956726327
H          19.02924571400011   -1.63816511957943    4.51995955899490
H          19.24674060690755   -2.10919518809975    2.83416757994930
H          19.69399633384982   -4.03605037619448    5.15556182536391
H          20.98801916399130   -3.10680234858768    4.38394530651155
H          20.51217922415314   -4.12761316974256    2.20848903450344
H          20.64588417864981   -6.12401564488567    4.17363164004202
