86
 SCF done       -161.899252191690          0.000329645027
C           2.58011038617413  -13.71313916183182   -4.45900796983737
S           1.03105379987692  -13.37734314033378   -3.83812288467560
C           1.62994688242737  -12.12015559145862   -2.76477782786613
C           3.03764386067255  -12.04900733430173   -2.86851188974940
C           3.55536473933061  -12.94184093822448   -3.86135857709602
C           4.94019263994516  -12.97676892318362   -4.13508507006956
C           5.81386605646741  -12.19832557508644   -3.42486025959500
O           7.15471127694221  -12.14140270468441   -3.67533986899624
C           7.67344584877991  -12.89773887749939   -4.74120599948082
C           5.31522207493227  -11.38675656298494   -2.35159866168874
O           6.07223772345509  -10.60958894465619   -1.53323053172014
C           7.45301249784913  -10.85176489593975   -1.35381456742753
C           3.96058274211505  -11.33016521321575   -2.10150608235153
C           0.63548571115230  -11.42300228973174   -2.07355984048239
C           0.61995104276798  -10.20409686857226   -1.42171976630728
C          -0.53524969607045   -9.64314164562925   -0.83407747742499
C          -0.36149832060246   -8.38588723360395   -0.31833865719452
C           0.94195265993550   -7.89418013949139   -0.47001566852435
S           1.94155478513855   -9.06278014239433   -1.29280852842169
C           1.49692882385107   -6.68325873937278   -0.05673438359487
C           0.88266573280725   -5.58150652030586    0.54950960316380
C           1.75097133892043   -4.54994806022931    0.81748050594713
C           3.07845433466045   -4.81194308585230    0.44491203058589
S           3.20444855516589   -6.39371323662876   -0.27264247559049
C           4.17136210852927   -3.96526448323060    0.62059510481263
C           5.47160716655759   -4.30779599474480    0.27947626203604
C           6.60816852104548   -3.47922960992676    0.46100054197326
O           7.87775709758717   -3.91815710905374    0.13741989172500
C           7.98065985849426   -5.18069503838806   -0.35172980367730
C           6.83745380267435   -6.00610901646878   -0.55481563750369
C           7.14014340753217   -7.23196953138771   -1.05071465449308
S           8.84005050737917   -7.39532493326549   -1.28052735328063
C           9.13827271518997   -5.79891112322729   -0.69992066741536
O           5.58717081917126   -5.56773233700070   -0.26292191591153
C           6.52221774678504   -2.19074737248679    0.96380631985350
C           7.59847161391914   -1.33586050522199    1.17684417301077
C           7.52134505140831   -0.04328342722791    1.66190913967607
C           6.39892268689173    0.70974943586934    2.01423074681791
C           6.42858819310805    2.02196575188667    2.51222293977545
C           5.19504929030018    2.56794856639433    2.77899211119642
C           4.13005217946939    1.70503564135842    2.49752662847412
S           4.73490205282599    0.18408090851776    1.89302060467101
C           2.75700881135007    1.89708163994123    2.62182794580740
C           2.04769795298038    3.01859216394293    3.07732478359004
C           0.68860035662555    2.86106051080941    3.04839700373705
C           0.26013847668715    1.60509000320913    2.56338020675926
S           1.65095927902197    0.62142643646306    2.15756744917654
C          -1.03925214795380    1.18444957301301    2.40269885318423
C          -1.46844503274329   -0.05027392298093    1.89764501308759
S          -0.41613800058192   -1.36198110825954    1.38198654513225
C          -1.71589214297700   -2.39699172300176    0.92226404388611
C          -2.92405760164418   -1.78055605927015    1.14709148460624
C          -2.77470840363686   -0.47125889246115    1.69541653538000
O          -3.97551022406886    0.10816448551581    1.90200016824560
C          -4.88999217451709   -0.81275073218781    1.49319294548905
N          -6.25495359294989   -0.47429591624337    1.59327970809101
O          -7.05257514254343   -1.31697620981594    1.21690283545103
O          -6.54552749276658    0.61688437665886    2.03985872928652
C          -4.32694494979507   -1.97315203612452    1.02754014585482
H           2.70417239959726  -14.45648085296451   -5.22099237878333
H           5.28045751096684  -13.63023682868533   -4.92147092762400
H           7.53764798532947  -13.97138232516349   -4.57682079005342
H           8.73773313532749  -12.66940329370676   -4.76821454591573
H           7.21643749969238  -12.61360950614626   -5.69413850701325
H           7.65990785681118  -11.91330817513315   -1.20758700585492
H           7.72574745855361  -10.30280333424157   -0.45239518193377
H           8.04197239672406  -10.47876555478229   -2.19415930729210
H           3.64563078877813  -10.72357776279187   -1.27197541686704
H          -0.34220837930871  -11.89101473599760   -2.13088833667014
H          -1.46665823201006  -10.18110499417749   -0.80751621339600
H          -1.13570049575096   -7.81907580860036    0.16689773609585
H          -0.16820329571907   -5.56328103174102    0.77797805224422
H           1.46558358467938   -3.61765635731276    1.27335229627249
H           3.96918300197091   -3.00371247557607    1.05986779034809
H           6.46987589865598   -8.03287278609284   -1.28568899968886
H          10.13474016749103   -5.41346325685735   -0.65123157750609
H           5.53566085566975   -1.84338726205732    1.20278871634944
H           8.58424098929386   -1.71606990906077    0.94775050401253
H           8.45956137364521    0.48283245845438    1.79105747218459
H           7.35769346142985    2.54315327126826    2.66570211720046
H           5.04475359406138    3.56100500761801    3.16277472099529
H           2.54613942003701    3.91077689638713    3.41222710264359
H          -0.01738835912572    3.61170340043379    3.35633785679930
H          -1.82801749364983    1.87157820033948    2.67848882065594
H          -1.50755655694218   -3.36182462606349    0.51163827787627
H          -4.85928485138368   -2.82450499250051    0.65786388462305
