105
 SCF done       -177.660142556834          0.000550384341
C          12.98203261024425   -1.65713360927112    4.12937845976653
S          12.21463704461597   -2.51459881905266    2.86559414783771
C          13.53807640840901   -3.64312718869150    2.72543140105073
C          14.54199991977712   -3.32593046966076    3.66363505199529
C          14.21156790353463   -2.18803182982081    4.45878266246422
C          15.11310582203018   -1.72908237545274    5.44910636261964
C          16.29810336114710   -2.37952424616529    5.63817457811607
O          17.24927917091857   -2.04278986072690    6.54738819600628
C          17.01410414241181   -0.92912852726805    7.37122203016189
C          16.63135740549306   -3.52875982479665    4.83723774283471
O          17.83757559295615   -4.07758709124140    5.13194972067505
C          18.25564791138207   -5.20539062036663    4.40601995826691
C          15.76680662476170   -3.98287227359969    3.87571013599940
C          13.55343175776608   -4.68890741116807    1.80116333895281
C          12.59624710990234   -5.01178413723401    0.86483443319115
C          12.67123297930347   -6.08387862447347   -0.05281505003794
C          11.59620577987164   -6.18697933971321   -0.88823513609868
C          10.61513587189808   -5.20122144967493   -0.67460498942451
S          11.09557273333386   -4.13638564005653    0.62957674754648
C           9.42046488861687   -5.01683031535146   -1.35521928342274
C           8.90177680468915   -5.76436336398136   -2.42697485615668
C           7.70022436569367   -5.30245864038505   -2.88862290185212
C           7.21361859703712   -4.16943946371545   -2.20671312964849
S           8.32951855099251   -3.71148654292495   -0.93935831489542
C           6.03922483692815   -3.49753370409262   -2.49747472836827
C           5.54696001624390   -2.35336967222421   -1.88727085745950
S           6.40743562026809   -1.50505261784586   -0.64054976623684
C           5.27937023204844   -0.17904027336676   -0.60994547101215
C           4.25848547309300   -0.37639322943547   -1.57372504816290
C           4.36340912697113   -1.63986272849259   -2.22456518613739
C           3.34996844781250   -2.06275809060197   -3.10574724522937
C           3.24073802924789   -3.45578819870089   -3.62939635022668
O           3.28454669601131   -3.73351413927796   -4.80331200301901
C           2.91935096268007   -4.46931008825405   -2.55512863672008
C           2.33328206897062   -1.18905576816069   -3.42813262808679
C           2.27967173166318    0.08609584810318   -2.86139394472844
C           3.20774261416972    0.48333632126099   -1.93503107184289
C           5.47604740964111    0.76475717248707    0.41018184430419
C           4.70518473435451    1.85210023922261    0.69647150012766
C           4.83560635097983    2.66829663178449    1.83675215943647
S           6.30255082149089    2.67424890747009    2.79148376874047
C           5.70181441826784    3.97245190346647    3.77744230863675
O           6.43218667538225    4.46475423208793    4.78339694760360
C           7.69232165194098    3.87780185885911    5.01987369604639
C           4.43226295105628    4.37771463900308    3.41777198515227
C           3.64852182000935    5.41688007732826    4.09802143878406
O           2.47112846269510    5.59923380076849    3.86206176667778
C           4.37483517697985    6.25842152574239    5.11633930528394
C           3.92197031740957    3.60547755458106    2.31500433064425
C           2.61652171232527    3.76867474150554    1.75352011474888
C           1.90526336771854    2.75980025420134    1.19234944487717
C           0.69575768407508    2.90386252774175    0.47302042083483
S           0.02962953895975    4.45918472687893    0.10940385699230
C          -1.15912073306715    3.80982247588888   -0.96909224256734
C          -1.07246760154626    2.41569099452899   -1.01814838173857
C          -0.03370140494712    1.89516224313369   -0.17585434929545
C           0.17190368643772    0.49399899426504   -0.11321379485542
C           1.08338204190588   -0.17310402273445    0.86022019529937
O           2.00111671320511   -0.88408312155199    0.52500274715240
C           0.65422063578528   -0.01785032282931    2.30222694437805
C          -0.57860652628830   -0.32581259767428   -0.92012260315769
C          -1.61221872516584    0.18496103867732   -1.72378796624963
C          -1.88203199354601    1.52236125027522   -1.75288136274191
C          -2.00749747102606    4.74342393017013   -1.65373511300578
C          -2.61890203325284    4.57186666719083   -2.82591674234020
H          12.49436834387835   -0.80858743833878    4.56587771396004
H          14.83612322185699   -0.86685447897908    6.03314841437573
H          16.12584943407631   -1.07141255477677    7.99585256037185
H          16.89987565528557   -0.01171910039717    6.78404662005478
H          17.89293843843513   -0.84292473336303    8.00793685940805
H          19.23305240660365   -5.46777738101881    4.80748500277436
H          18.35087638367933   -4.98415280917505    3.33753998652090
H          17.57017166421938   -6.04880377267524    4.54200777885233
H          16.01354598116408   -4.84213916138026    3.27440650651688
H          14.42806135129264   -5.32617587211239    1.81728676814991
H          13.51883879333337   -6.74659687399523   -0.07099752526266
H          11.49076708157723   -6.94154377459015   -1.64691282439359
H           9.41898200350179   -6.61400556951975   -2.83510344377927
H           7.15360056416938   -5.74084422124568   -3.70509610929945
H           5.46789919706712   -3.89409925879175   -3.32546856111799
H           3.07560637683487   -5.48027403428871   -2.92330576426896
H           1.86693140763966   -4.34880889979239   -2.29878709264644
H           3.50348763109189   -4.29205073533884   -1.65711089841160
H           1.56081141221711   -1.50759905935220   -4.11231447475832
H           1.47801874684774    0.75406449940657   -3.13952142451844
H           3.12303423074735    1.46554522398774   -1.50424406748378
H           6.29646711284588    0.54113590823273    1.08442946264080
H           3.90366344109731    2.13012781936120    0.03583097188058
H           8.11782782646649    4.41058703455446    5.86774659426212
H           8.34457946205828    3.98375834933430    4.14760078638782
H           7.59188584142378    2.81485568865693    5.25969501760911
H           4.66939921776721    5.63876591203458    5.96011903446245
H           3.71146382110883    7.04789532145464    5.46079985304497
H           5.27548452550874    6.68886356902862    4.68689505445176
H           2.17693703521368    4.75406404881728    1.82138570288005
H           2.27815737802798    1.74765645621727    1.26323772112664
H           1.48197354676902   -0.24250469495310    2.97038954126525
H          -0.13958926896884   -0.74359175147909    2.48201908998463
H           0.25906704969417    0.97332972627358    2.50262986483530
H          -0.40238961479551   -1.39098153950213   -0.89311198740075
H          -2.21240517545364   -0.50247617778321   -2.30074963654245
H          -2.71581505120977    1.90154407491060   -2.31995151464928
H          -2.09716838832754    5.70191345913844   -1.15566992709635
H          -2.51344562823131    3.67880594824138   -3.41481098695236
H          -3.22634234964748    5.35326053742495   -3.24787125600629
