89
 SCF done       -153.752955424857          0.000591038851
C          -1.15671789797876   -0.68713125044847    3.59186478945405
S          -0.32275743779561   -1.94473418200772    2.79957760870271
C          -1.65852911893895   -3.05669232911167    2.97620486781328
C          -2.72207829600487   -2.41749305341888    3.65268994546368
C          -2.42506150478942   -1.06296868647308    3.98918679994731
C          -3.39437664444306   -0.28761081239996    4.65316291806352
C          -4.60727127880191   -0.82297686949183    5.00664957342443
O          -5.43461344324997    0.02495359755749    5.67865939150387
C          -6.82941185111249   -0.18646839028933    5.72321945714532
C          -4.88741955673260   -2.19755971247091    4.70306902294091
O          -6.08783072378020   -2.68995916628048    5.13310253913312
C          -6.40209685036851   -4.03588120665956    4.87889324151230
C          -3.96009776114723   -2.95666137886330    4.02743032997188
C          -1.63673185290157   -4.35511302511897    2.46721448954089
C          -0.59735192704792   -4.97500270676910    1.80244547010081
C          -0.62449285696749   -6.24636253038380    1.18973685620584
C           0.53175394121483   -6.58647152498146    0.53988618881471
C           1.53452235418954   -5.60805946450686    0.62824716714138
S           0.97305279509001   -4.24062499099892    1.56421993028432
C           2.80659610913395   -5.56930168846366    0.06698974827380
C           3.42355195548794   -6.41871438364647   -0.86255379433576
C           4.65488420738108   -5.97945216855911   -1.28138497609907
C           5.07908661013124   -4.77618105134255   -0.68775384798037
S           3.85977125424050   -4.22917435530589    0.44833236625842
C           6.20015764383249   -4.02453384601112   -1.01041930273963
C           6.57826391572251   -2.83880123218673   -0.39209259328378
C           7.39596533021936   -1.80323966845630   -0.87839087523082
C           7.32468938859833   -0.70878376748608    0.00857185237306
C           6.58363983702863   -1.13797671908451    1.18154370347404
O           6.41660703633859   -0.63399804802765    2.27547833608067
N           6.10652038118835   -2.39135088613386    0.82896097054072
C           8.01734613137991    0.35835714362116   -0.57847905541535
O           8.59726374269276   -0.10091988783493   -1.74343532412840
C           8.21927511592983   -1.41086606594810   -1.99773642125362
O           8.57869007066752   -1.99745050227703   -2.98637213474153
C           8.14922786786138    1.70383104179155   -0.27856358009267
C           7.39127348424661    2.43375711692109    0.63157168341888
C           7.56513167605060    3.80155717378058    0.93740110085196
C           6.62674075281787    4.30896732059150    1.79431603523680
C           5.67433106321610    3.35517242296685    2.19806636539586
S           5.99883331611349    1.80931087690830    1.45841492917299
C           4.62298146826426    3.47780213330438    3.09927931122605
C           4.14866918146203    4.62603268033921    3.76450758939731
C           3.11162429729602    4.37672192922517    4.61474243254732
C           2.72825244684385    3.01278561966818    4.68239822596477
S           3.70773317442253    2.06905460913058    3.57289878258522
C           1.78009823669015    2.49373721246906    5.52948825634743
C           1.45000039768850    1.14111921917522    5.73504866376851
S           2.17198221213538   -0.15243065482118    4.80410106578294
C           1.34393411962462   -1.31968702353492    5.73934192208963
C           0.56100706506561   -0.77888776590141    6.72346143601923
C           0.59184234636631    0.63146365906834    6.71067356469066
C          -0.15808149840211    1.49009387095901    7.68069842730550
C           0.71430057336058    1.84859947557225    8.88713756712077
C          -0.20725886676744   -1.62545501775712    7.69402689785607
C          -1.60259745036977   -1.97439703363255    7.17673710350879
H          -0.68654667776244    0.26719436400927    3.71785763666083
H          -3.18959780993120    0.74185249403541    4.89883266588933
H          -7.24849489227606    0.75999625829368    6.06553209005171
H          -7.09811264438599   -0.97787028192791    6.42608514174454
H          -7.23394783962963   -0.42540470827905    4.73730796656733
H          -5.68239282899195   -4.71283650829849    5.34991781643313
H          -6.45109245950152   -4.24312096519877    3.80505893896341
H          -7.38547458172285   -4.19287005549830    5.31988252541555
H          -4.16995415470199   -3.98688616955995    3.79215737977470
H          -2.54378521122684   -4.93474671232805    2.57871029531714
H          -1.50100886620174   -6.86956876179936    1.22845071695676
H           0.67995496239377   -7.51080271100378    0.01057298057705
H           2.94513930863658   -7.31032769852276   -1.22701611263644
H           5.26104531624763   -6.48819199775033   -2.00993799032637
H           6.78471176001461   -4.33158043630479   -1.86565841617101
H           5.59263945555008   -2.95775616641630    1.48550794044154
H           8.86565262262097    2.25228237802475   -0.87536956731677
H           8.37996921869829    4.37057052132608    0.52537758876991
H           6.61475485313290    5.32412582204270    2.14896768180777
H           4.57990262864309    5.59748136953498    3.60141431520699
H           2.62407658840262    5.12613145185087    5.21374011224923
H           1.26107780287207    3.21126381375066    6.15174231185675
H           1.49130321332632   -2.36015914968669    5.52460463737598
H          -1.04715172319271    0.95887516705500    8.02198627801028
H          -0.49077386388364    2.40611004892573    7.18852766057431
H           1.04182701152345    0.94748817525077    9.40044733360361
H           0.15591296349337    2.46410548456714    9.58862085985159
H           1.59848893223405    2.39581537364798    8.56860507737873
H          -0.29327250860260   -1.10452334805477    8.64851296906872
H           0.34804315456459   -2.55002905222476    7.86606261784243
H          -2.18215184165668   -1.07537926522136    6.98200564909817
H          -2.13412986701020   -2.57808451306812    7.90886644070704
H          -1.53288670411665   -2.53758827714948    6.24948943912486
