82
 SCF done       -153.653528666140          0.000662189299
C           8.78779467685544   -5.11794437689688    6.07782814329956
O           9.39659868276666   -4.58141006432058    7.12963832588107
C           9.82687256813038   -3.34488475122739    6.76932098379011
C           9.50514098968305   -3.10446599257946    5.45786307822141
C           8.81366397992191   -4.26201554140597    5.00257318103183
C           8.19330595936092   -4.53584748955200    3.69994371590639
O           7.50063496608965   -5.51319847677268    3.52493287771465
C           8.46542066876957   -3.52339362295962    2.61803760254082
C          10.48851886097419   -2.56935090714497    7.78447942180612
O          10.88232054983262   -3.24599491194324    8.89928432216188
C          11.39128596996475   -2.39791515366638    9.76128412091235
C          11.38028988337512   -1.12233521363226    9.23609998570556
N          11.76485039314698    0.05078850941805    9.89002334545457
O          12.06147655240075   -0.01588566303643   11.06678330322899
O          11.76941778310372    1.09339368915515    9.24207130813006
C          10.78133263556296   -1.21982782154034    7.93234362313524
N          10.62113335766686   -0.15002794925997    7.10424299378887
C           9.53165958812157    0.09880239171437    6.29730006244171
C           9.45183158567119    1.19163728212591    5.52666905989152
C          10.60292858000297    2.15053853109203    5.43675608097999
C           8.14608299208156    1.54285246507815    4.84667422112945
N           7.09284645758136    1.76078052085719    5.82935413615079
C           7.27909770032751    2.57209479396591    6.89306012186018
C           8.10617424883477    3.65801033906824    6.91901238003550
C           8.55854876207334    4.30087008419043    8.08669385515884
C           8.67254348323739    3.72402432219046    9.32897963133051
C           9.33077558101859    4.26378726276083   10.46026634379378
C           9.52405814764324    3.37760881474984   11.47995832929013
C           8.99642143340420    2.09547854017976   11.22336072317216
S           8.22695081752187    2.05437810873778    9.66384782052879
C           9.05516579074908    0.93209677408512   11.97543372854756
C           9.84620642287615    0.61188082348376   13.09242468083668
C           9.80726482458292   -0.71782175273973   13.40170558577191
C           8.99888779915613   -1.50516970075034   12.54420011771768
S           8.22874572217197   -0.49149876166561   11.37873437220003
C           8.82828771894431   -2.88140038248560   12.71220444046576
C           8.13973784777033   -3.85493429315411   12.01162368682941
C           7.53564244086275   -3.87460806061987   10.75095465631801
C           6.68104135457097   -4.93405142871892   10.26939538467667
C           6.22192322244804   -6.02891792250727   10.96404473982231
C           5.39708811856508   -7.02400561172063   10.40432610090236
N           4.72914891016404   -7.87073293779933   10.00767635651162
C           6.47043969009308   -6.32040466303410   12.31992627922706
N           6.60100286360022   -6.64301091838519   13.41561905996274
C           6.31577724718147   -4.62394006255989    8.88385011680770
C           6.87575239333233   -3.36699863916221    8.55810282123547
C           7.73364446394125   -2.93407008431934    9.67505672268271
O           8.55569167493472   -2.01759458327887    9.60566847431687
C           6.68248293254283   -2.75952524666046    7.34551615496690
C           5.93913499409845   -3.44721399534596    6.37948516378407
C           5.42517077717122   -4.72445438201136    6.69286833850455
C           5.58587447586912   -5.32018017364390    7.94166028393303
S           4.60210255089431   -5.43048827049009    5.33388654726129
C           4.94807498379295   -4.01885554151614    4.38438008705851
C           5.64093868863696   -3.06081787260198    5.04571841727132
Br          4.38774134383603   -3.92380563666716    2.60198459194697
H           8.37822170508225   -6.10391216657778    6.17515411075806
H           9.74136409725160   -2.22623042560277    4.89483233221950
H           9.53425611352324   -3.48521283919549    2.41831795937808
H           8.14419271429953   -2.53595960048683    2.94087688297582
H           7.93376129682161   -3.80173260254328    1.71206535250560
H          11.74472798069726   -2.75969116742843   10.70684482793107
H          11.11068688115337    0.67950216410256    7.43644348680412
H           8.73641549843505   -0.62847615900404    6.35432635294172
H          11.52591251243919    1.61406789667431    5.22147416918639
H          10.74006954107744    2.68691388671766    6.37756834046594
H          10.44311059682764    2.88092757085310    4.64862781232358
H           7.81106464861315    0.74330101027192    4.18203347665590
H           8.26989839505577    2.44813411826930    4.24709242355580
H           6.45315503953098    0.99502745414624    5.96804089391039
H           6.66783465292886    2.34601611461705    7.75595167997792
H           8.49167686719301    4.03946781477389    5.98461974942178
H           8.99763800005614    5.28381389693229    7.97400753997390
H           9.68028761351670    5.28151988216443   10.47039579963655
H          10.04940098423978    3.60090575629474   12.39073673893598
H          10.46177235004694    1.33617561320662   13.59338966359219
H          10.36873934866681   -1.16414667447005   14.20322915760903
H           9.30893100819569   -3.24554347350302   13.61475110762889
H           8.07053737405683   -4.79365336324466   12.54780317588134
H           7.10135419039990   -1.78557894950456    7.14381048750322
H           5.16095231596121   -6.29119687975503    8.13296521951109
H           5.93491116594065   -2.12525327224449    4.60473125058064
