126
 SCF done       -202.219936750305          0.000845455948
C           7.31650880472881   -2.58509376030922   -3.98452580056126
S           7.52266948092333   -0.88396124255488   -4.07789670911585
C           7.19154643148670   -0.71563133435031   -2.37145847887512
C           6.94619146281389   -1.94390538629428   -1.79463651228374
C           7.01938995041993   -3.00903527307953   -2.72503308090662
C           6.80957032727481   -4.43420319541715   -2.32061062660553
C           5.93723292825126   -4.49098924066337   -1.06440495846943
C           4.48780837470347   -4.06988901007665   -1.28257880762093
O           3.85763815807912   -3.50199213165383   -0.42630794644626
C           3.87526713569817   -4.43728434302160   -2.60918179812392
C           6.59157772980763   -3.63643721863267    0.02679035739436
C           6.58905356474208   -2.15520002123189   -0.35634145065641
C           7.19810996331315    0.55824985550398   -1.72945132997665
C           7.49440437246907    1.71996567006902   -2.34212031013899
C           7.54530690559736    3.02675357371651   -1.73233649439063
C           8.03195039731826    4.10255328813680   -2.49375575291394
C           8.13017367171172    5.35086203737025   -1.93155245063768
C           7.73682196722091    5.56472118155959   -0.59857287446421
C           7.23270697264655    4.51574292912932    0.15929757399344
C           7.14264888218649    3.26351817518591   -0.40978464799619
C           7.96852215595186    6.94889688257158   -0.26566886243017
C           8.50621583567319    7.60124634118340   -1.39276602533516
C           8.64080758517291    6.63359132419698   -2.54682417706597
C           7.77388957475873    7.06497568174696   -3.74449535869784
C           6.30286594122560    7.22871795354941   -3.38176784597961
C          10.10733397121187    6.49459807254477   -2.99538130615828
C          11.03303822817482    6.06196130685353   -1.86469886142095
C           8.83763944055765    8.93031009317410   -1.34383088691805
C           8.64477095665503    9.65130985030084   -0.14873947072778
C           8.10229555237935    8.98094934669685    0.96424413280555
C           7.76247788606717    7.64810002518510    0.91721928647305
C           8.98698022338511   11.03139670948270   -0.00143701581360
C           9.49661659745482   11.87518729114354   -0.94418512333297
C           9.81038531166952   13.20997352848201   -0.65149302738369
C          10.31184961949747   14.13250257901315   -1.53990763920356
C          10.64566240570207   15.47450650473296   -1.25227984620047
C          11.11576676279233   16.17657501903775   -2.32388088999026
C          11.17366348563412   15.42722941868230   -3.51540000777178
S          10.62421468901405   13.79498448598702   -3.23649533165198
C          11.58236901245724   15.87671957346695   -4.76612773284564
C          12.03449475891893   17.16776465008323   -5.09751605928467
C          12.35026280689682   17.32888312222361   -6.41796292701454
C          12.16088104099530   16.17645699341277   -7.20195756077126
S          11.57737349001082   14.86369240862108   -6.18415005431370
C          12.29338587177512   15.91805567780030   -8.55457078948879
C          12.66751188243581   16.71047068138806   -9.64630542001732
C          12.52812735739219   16.12431485671779  -10.94997481784097
C          12.74488622801072   16.87191509893697  -12.16111929024605
N          12.54172965452567   16.28176502377421  -13.34919636870047
C          12.19585133223438   15.01926241430408  -13.40102630011602
C          12.02754708278807   14.26548006848402  -12.20056897419227
N          12.18012051629737   14.83963559883464  -11.02377568414766
C          11.68680714167807   12.89443908588103  -12.25492454314663
N          11.40954099782930   11.78433056902027  -12.32961957794292
C          11.98555002828139   14.41105618353209  -14.66343470323030
N          11.80894580728542   13.88375777252536  -15.66534053361425
C          13.13833499748316   18.22907260480534  -12.15806817570686
C          13.44415220012391   18.75784122688217  -10.88491412192766
C          13.20777960633202   18.02748369914186   -9.65547362028384
N          13.62526198314262   18.71466798702034   -8.59919551171415
S          14.26868078599571   20.11326020882458   -9.07719130232963
N          14.03979472198201   19.92768856496298  -10.65732274969134
C          13.28134151427328   18.95267276329394  -13.38400987326389
S          13.71220286299250   18.09240793393250  -14.83192421900440
C          13.72808585000126   19.55677559568913  -15.76582550174684
C          13.36923327453144   20.64688673497836  -14.98971680576261
C          13.10903604228031   20.30451662623192  -13.64961634522356
C          12.60441013460231   21.31144494396342  -12.66477991168198
C          12.00953038390739   22.52944227221493  -13.36634204182534
C          10.67624389726256   22.32322565770795  -14.07896166890249
O          10.20905704281504   23.19913215295344  -14.76467710255257
C           9.96819808958860   21.01112971021604  -13.87390098716968
C          13.03985349715142   23.06038373212984  -14.36945729166577
C          13.24402122577528   22.05001880719441  -15.49663555182207
C          14.06390470623369   19.42115259452796  -17.15599940038929
C          13.98072109076011   20.33316636877761  -18.12464850632729
H           7.43301948017403   -3.17866777517209   -4.86993256042145
H           7.78135330506547   -4.88144672736986   -2.08491166635904
H           6.38591189630047   -5.00851087452548   -3.14472943268999
H           5.88449321311665   -5.53184840205669   -0.71802102694420
H           4.08526129973762   -5.47359047216211   -2.86122508601602
H           4.29540133538744   -3.79860469253555   -3.38431948126370
H           2.80070764147012   -4.27782250397754   -2.56869903271634
H           7.61707293022631   -3.98126655632259    0.17471784242189
H           6.05003558179283   -3.75980667903151    0.96512907076518
H           7.28295732638509   -1.61118846879918    0.28925431454815
H           5.58939472015672   -1.74557498144849   -0.18170323988223
H           6.95282045749896    0.53659588168886   -0.67736884872414
H           7.74762819743119    1.68755593208060   -3.39546408814085
H           8.33616769007999    3.92994360691248   -3.51644303973023
H           6.91820405945931    4.67611208371370    1.17996226643801
H           6.74776267391427    2.44973839454855    0.17834260951616
H           7.87080126678225    6.31540938175606   -4.53253590295362
H           8.15911449888126    8.00989349153535   -4.13339571234145
H           5.89285139803556    6.29309512486049   -3.00784804356412
H           5.73325787447361    7.52818201832932   -4.25839237745044
H           6.17776671265378    7.98925318533499   -2.61389712551017
H          10.44466506624602    7.45366041202000   -3.39388138006911
H          10.15676823218358    5.76203666966819   -3.80353829222023
H          11.01517750970748    6.78693877415206   -1.05367485993559
H          12.05425172901007    5.97833348351254   -2.22909468725565
H          10.72893936688440    5.09588380090337   -1.46766498798678
H           9.25190711357799    9.42363132161668   -2.20947977682187
H           7.95300090730851    9.53691879328278    1.87909781802695
H           7.34875347542152    7.15470083698327    1.78391635588572
H           8.81896360361801   11.44437287295434    0.98697953530998
H           9.67625557035315   11.53710376184614   -1.95534873229489
H           9.64997987935751   13.55527760113915    0.36253054533810
H          10.52871986343867   15.88144936168502   -0.26339930424568
H          11.41527712199719   17.20806413087923   -2.28392550877066
H          12.11829168838019   17.94997313033200   -4.36460706204803
H          12.72124236729077   18.23889275601396   -6.84950897645229
H          12.00792213309065   14.91510227401616   -8.85241648443011
H          13.44183847716368   21.64707669724435  -12.04712888161001
H          11.88501511200649   20.84611120244482  -11.98899221815236
H          11.81923188242166   23.30864557236929  -12.61732257600904
H          10.60624932099659   20.18747470461397  -14.18542333867663
H           9.04817449874772   21.00017201397458  -14.45300942714183
H           9.73082228035197   20.87883979659666  -12.82029162756375
H          13.98281443225632   23.23714676229959  -13.84896415574676
H          12.69384923539103   24.00458982179413  -14.79097020983879
H          14.13970822732294   22.31259016056648  -16.06478544214781
H          12.38943052152368   22.10118239678406  -16.17913941256464
H          14.41004292751889   18.42705288641777  -17.41377804645645
H          13.61972244232322   21.33250026993219  -17.97300895424382
H          14.26860883358113   20.08109983414300  -19.13084696941513
