94
 SCF done       -170.179565571413          0.000451471858
C          -2.31459975408757   -6.94726462505158   10.03188745406963
S          -2.95657614311516   -7.37548212065011    8.51289982956643
C          -1.44058381250310   -8.02368131166032    7.96716379414914
C          -0.46612602638790   -7.89523382491275    8.96864683580124
C          -0.97983318111789   -7.26987328271047   10.15772129662904
C          -0.10117850491814   -7.07201361403916   11.25819497276108
S          -0.61495091704987   -6.31917544876029   12.77063311858344
C           1.20094295301997   -7.48749963615936   11.16313491304196
C           1.68739296412135   -8.10025152198557    9.99675979366750
C           0.87935817928778   -8.30299205271053    8.91333014999138
C          -1.28194979278001   -8.58630778043938    6.68311831132608
C          -2.28494061004793   -8.70782105313766    5.77230181757522
C          -2.21028445510851   -9.25866361773476    4.47395822806929
S          -3.70978958179970   -9.68423447292232    3.70838727902385
C          -2.93848085712450  -10.33888972741968    2.30251038964880
C          -1.54671905674439  -10.20107256310613    2.41169903385249
C          -1.13043270143674   -9.57094234544129    3.62906544477133
C           0.23487088761381   -9.28153606788806    3.81851363648420
C           1.13822155103173   -9.65871007511629    2.86775507115724
F           2.44138148037222   -9.37717004715861    3.04009684715354
C           0.73105494304867  -10.32971817398340    1.69371905077299
F           1.65856438789793  -10.68995442878249    0.79165094879448
C          -0.58625085704754  -10.58909791232678    1.45633567238317
C          -3.66832163852540  -10.89292375280337    1.22184891590004
C          -5.02057471116290  -10.93553729411594    1.16641479941964
C          -5.86024696263962  -11.42738747523733    0.11388454189437
C          -5.57502339195146  -11.66571216599884   -1.17865304934905
C          -4.24146256188811  -11.46126660334060   -1.82837425454946
C          -6.66550671447082  -12.13837648581688   -2.10773136030758
N          -6.39864735669239  -13.47432774047166   -2.58899921798701
C          -7.33159604377038  -14.40987668459064   -2.79992755359715
C          -7.08355218068759  -15.64151695329723   -3.33396859860326
C          -8.08933668982665  -16.58867485312147   -3.56307343052932
C          -7.88412117416193  -17.82881012708371   -4.11807518103555
C          -8.85694728230219  -18.81043409718975   -4.40832635399193
C          -8.35506987198874  -19.94736820222743   -4.97114351439286
C          -6.95531285498807  -19.92616014075967   -5.14735064518415
S          -6.29160365419340  -18.41722854459367   -4.58778161163846
C          -6.14802381154720  -20.92553073611773   -5.67300492786988
C          -6.53561542987311  -22.17675042107112   -6.18280323063319
C          -5.48706666532794  -22.94077137593985   -6.61762175470789
C          -4.22679779275050  -22.33013434104865   -6.46533174589751
S          -4.40837139746505  -20.74149615380488   -5.76277579484530
C          -2.99589203452877  -22.87691307231515   -6.79777327438533
C          -1.79527445990105  -22.22102073509318   -6.58809392644830
C          -0.54187641961286  -22.73848961602530   -6.88136573566483
C           0.72125361869702  -22.09630468626528   -6.65677438724344
C           0.94454238304012  -20.83868764870039   -6.13611272486102
C           2.22063226345929  -20.27902963285051   -5.94253400522321
N           3.22994481276909  -19.76091713238003   -5.75578620197949
C          -0.04515508572956  -19.92689619494242   -5.72474201130247
N          -0.77571395601176  -19.11458644893263   -5.36463484304220
C           1.77392290548793  -23.01990040618151   -7.08351176075828
C           1.16550447531764  -24.20105716368716   -7.57018224212109
C          -0.30585246938596  -24.06623776858762   -7.46479707981515
O          -1.12293364659631  -24.90438741319542   -7.80204714570231
C           1.88762599834828  -25.26675056746695   -8.04402691951252
C           3.28394830125541  -25.16446183105184   -8.03608870236648
C           3.88257566728451  -23.98196106184668   -7.54847209255855
C           3.14955826501943  -22.90119475528958   -7.07004472726888
S           5.61835307455951  -24.06586611415491   -7.62466108112790
C           5.51310515215658  -25.66887147969914   -8.30198782867199
C           4.24763882419193  -26.11968328430160   -8.46377327501745
Br          7.08697760519880  -26.59863400754297   -8.72948079880667
H          -2.96732399105202   -6.48588303572492   10.74732804676368
H          -1.82636532564992   -5.94468428663815   12.37079679084573
H           1.86350556224602   -7.33772201168955   12.00182038074382
H           2.72087221937025   -8.40903620510446    9.96771015557654
H           1.26516723802962   -8.77345911414926    8.02302733879645
H          -0.29728055255387   -8.96504272871383    6.46155700615769
H          -3.27772501950520   -8.39588762877815    6.07673583026536
H           0.58285305504224   -8.73650017112929    4.67838384424351
H          -0.87200704030429  -11.07898946281309    0.54031621058201
H          -3.06937679353670  -11.31326828398698    0.43185320002998
H          -5.55763554057478  -10.55896419537440    2.02959720826555
H          -6.88894215411471  -11.57777315075535    0.42003848942992
H          -3.78286726303409  -10.54016143549775   -1.47255882165379
H          -4.34719135650177  -11.39580932796342   -2.90986074022495
H          -3.56260785193946  -12.28514751919597   -1.60393628507260
H          -6.73118709944514  -11.44663637831009   -2.96259653483682
H          -7.63303282106042  -12.14359783492182   -1.60149788205789
H          -5.45046759611161  -13.67760806174240   -2.86999470146661
H          -8.33916162055522  -14.13660196698759   -2.51465836610500
H          -6.07180737631018  -15.90510623689269   -3.61076439735116
H          -9.10654826728450  -16.32848371412748   -3.29915368723859
H          -9.89913833712498  -18.64752572381975   -4.19577558320044
H          -8.95074111959437  -20.79526317751277   -5.25701739109323
H          -7.56474443418003  -22.48652062689298   -6.22160988160786
H          -5.58447452941692  -23.92567250260365   -7.03844702333651
H          -2.98688181957363  -23.86666804412195   -7.23034588349153
H          -1.84757645029561  -21.23120839933700   -6.15070126111524
H           1.39344180789263  -26.15376640488065   -8.40847066592582
H           3.65602845255089  -22.02213329016065   -6.70857900975219
H           4.00044784071581  -27.08494820698156   -8.86663554356126
