94
 SCF done       -174.077560239150          0.000470851521
C           1.77940589888021    1.91052986300949    0.42840835049435
S           1.33434932510966    1.05156989510001   -0.97194401888183
C           2.55209254042880   -0.15549181431843   -0.71550565404832
C           3.29582133814469    0.13637360488233    0.43774113169759
C           2.82513453328367    1.31774020784495    1.10346456894188
C           3.44449363131916    1.70737691171339    2.32069794036805
S           2.85204563872818    3.08426660900372    3.25552029207948
C           4.51782568249430    0.99983396645297    2.79102941599320
C           4.99685260255524   -0.12959667518307    2.10377094825155
C           4.39226675829987   -0.57478425691429    0.96202718245222
C           2.63848973077709   -1.33869336351532   -1.48112854797946
C           1.89376328555100   -1.68523052378966   -2.56548272065203
C           1.84371318255002   -3.02621315191007   -3.03474071902396
S           1.58928127609947   -3.44422871423495   -4.69712169251431
C           1.74796509471315   -5.12016321867126   -4.33206524613135
C           1.98463765535470   -5.37055592874276   -3.01834556721278
C           2.08790454402335   -6.74056995908237   -2.43982124605139
C           2.03191360567779   -4.16972235128692   -2.24919020365896
C           2.14618550589511   -4.03191173365849   -0.82993944483370
C           2.94008802545603   -4.72187960776457    0.02662113344690
C           3.17318224340655   -4.29738511483730    1.36172258748080
C           2.63064678329727   -3.20342872637461    1.97227408280006
C           3.08613124761204   -2.71404714535561    3.21241248724135
O           4.11037152698387   -3.32563619088955    3.86151608329267
C           2.71757930276629   -1.59490991788348    3.95074265585436
C           1.84564988693539   -0.42393323596128    3.96488805678536
O           1.00298773558204   -0.04420684904045    3.18786474882001
N           2.21014653462215    0.24493239539609    5.13268788404088
C           3.24150353041975   -0.34657527330968    5.85839591321236
O           3.71292006582915    0.08886158534294    6.87711971951917
C           3.56382056704470   -1.54577289003209    5.08071941503965
C           4.42621215422482   -2.62965858610677    4.99618151413485
C           5.50271078533271   -3.06927403197304    5.78838296460631
C           6.27976968989546   -4.11719021840055    5.36760957421893
C           7.38552406110293   -4.66705696162971    6.01490193466789
C           8.13559639816049   -5.66971250851928    5.43109835935393
C           9.26134654266558   -6.34727791319920    5.94345476649099
C           9.79119987872468   -7.27764182672329    5.09182142828461
C           9.11258002779577   -7.37011933855542    3.86077868656948
S           7.77067817492116   -6.26382120169833    3.81923612807656
C           9.39949967008624   -8.16834039493694    2.75925849036338
C          10.42080188255030   -9.12004676958680    2.59863312784835
C          10.43194972792887   -9.70726755265295    1.36182040162646
C           9.42565068566234   -9.24025792178601    0.49277553952209
S           8.44480324792926   -8.04139728549496    1.29959790848127
C           9.21546640427604   -9.62572637406588   -0.82287245448826
C           8.21904432503437   -9.08572914039269   -1.62079979609962
C           7.99937375599739   -9.41435224692487   -2.94945585049878
C           6.99283230631630   -8.86683322013410   -3.81247926236851
C           6.01895550770891   -7.94430426061695   -3.48961731451562
C           5.05821296449027   -7.45684250563890   -4.39502878588844
N           4.23615451448842   -7.01675610910046   -5.06790469062646
C           5.80785051373855   -7.36571956609237   -2.22643096003013
N           5.52282550429805   -6.84014528662828   -1.24263835196861
C           7.16010597345200   -9.46886195533699   -5.13482833748249
C           8.23981505748766  -10.38239023527955   -5.08118168732144
C           8.80268630129054  -10.38590081659470   -3.71218127646306
O           9.73812287334878  -11.06084236478006   -3.32600102241951
C           8.64829114975596  -11.11232685584723   -6.16860727005608
C           7.95718536068991  -10.93183915840279   -7.37297032496771
C           6.88156673401183  -10.01659797759979   -7.41754081494789
C           6.46796021467121   -9.27793630272136   -6.31438627664045
S           6.16771677780491   -9.94544171451325   -9.00125098695322
C           7.31106668974390  -11.13091062716472   -9.57305978045714
C           8.18214830990430  -11.55903639114772   -8.62937379022421
Br          7.24635044417887  -11.69082915653134  -11.36307058622298
H           1.25302773178170    2.81309782223364    0.66953451990043
H           1.59603229358563    3.01690171676128    2.81981947292952
H           4.99241311544846    1.30488626403846    3.71185595830684
H           5.84494709738207   -0.65946679894688    2.51127418214254
H           4.75528787944345   -1.45652328592694    0.45785418209980
H           3.36355008320664   -2.05448600207100   -1.11790123319037
H           1.29972601452557   -0.94281986182990   -3.08164194721004
H           1.66744906837791   -5.83493923506470   -5.12640021883465
H           1.81881331703030   -7.48341052628829   -3.18578633876480
H           1.42784707621163   -6.83559574043516   -1.57916240642321
H           3.10477506045633   -6.93913177313581   -2.10885512213248
H           1.57876088828068   -3.19996054867547   -0.43054316872791
H           3.54147822248098   -5.54441752645339   -0.32998728776148
H           3.92516327441281   -4.84860314008875    1.91107825002040
H           1.85127859603800   -2.61193857903564    1.51775703368988
H           1.79549814231854    1.12447561463788    5.40705546774125
H           5.69714733398335   -2.53356984122606    6.70437838483590
H           6.01601726750402   -4.56053225060899    4.41477393984455
H           7.67714826603587   -4.30470772693792    6.99079853913588
H           9.65041163624595   -6.13202799076220    6.92302704827058
H          10.64959689025984   -7.88449719350606    5.31737283772516
H          11.11751121075684   -9.35111474799108    3.38441029965646
H          11.13815846550506  -10.45595593706675    1.05006659298313
H           9.87473287645368  -10.37310005373179   -1.23983024361217
H           7.57509437352772   -8.34138611916465   -1.16655799200244
H           9.47554703295194  -11.80089165783787   -6.09595796192570
H           5.64201907459155   -8.59230870813686   -6.40240591647597
H           8.95236382188001  -12.28663979133519   -8.80953761118027
