104
 SCF done       -187.966887872166          0.000983569275
N          14.21076597265225    0.07195924639256    5.57179050387565
C          15.32972474657817    0.18639914266394    4.83812710431940
S          16.62766330587066   -0.93592701075517    5.05082745411506
C          17.54288270256237   -0.09888424096590    3.82311012660766
N          18.80991425653621   -0.58778365483170    3.52171329163963
O          19.45860199321862   -0.00639565682612    2.66772426175547
O          19.18404259180225   -1.57147422193380    4.14409126229254
C          16.87605204038647    0.97226803556221    3.29381258632998
C          15.59991440750162    1.16263328918244    3.85837401502750
C          14.66342956184173    2.19176490639112    3.52958246055181
C          14.85076447438787    3.15200613184361    2.59294500931415
C          13.93898359351224    4.19550025033240    2.25739743341097
C          12.66789904436926    4.42597499835519    2.83238667607306
C          11.84057452825077    5.54244361748660    2.43795536205413
N          10.65261549575716    5.72070110733464    3.01682684837123
C          10.22923829788084    4.88183702809376    3.94101595475647
C          11.04056495288852    3.77686501971283    4.32616829793088
N          12.21608450326353    3.58175048349154    3.77492287074392
C          10.62827344748305    2.84597165586426    5.31044183113647
N          10.32870418176106    2.07426660934829    6.10346266086229
C           8.96623681721298    5.09195475060505    4.53975620246003
N           7.94820791313954    5.23047918635656    5.04870060263701
C          12.23302833080382    6.49411284194769    1.43389810455710
C          13.49802995280491    6.23444969367427    0.83677690906111
C          14.31625938330808    5.11905258748708    1.25235115967642
N          15.46519388104990    5.06475834753480    0.58011985568292
S          15.52437373535850    6.27830140245278   -0.46793978914494
N          14.09428929297830    6.93695659974479   -0.12121192775930
C          11.34695373098110    7.55218937844106    1.19638735440098
C          11.34759577488795    8.62536402498360    0.32503572139697
C          12.20614047692867    9.04502599450007   -0.70932297758623
C          11.80753559969269   10.19072630598034   -1.33927280280924
C          10.61530656347475   10.74289822107959   -0.83093805968718
S          10.00415107851873    9.75252946578887    0.46749276178640
C           9.96679301889520   11.90085811014632   -1.23343470591845
C          10.32346795711689   12.78905505197114   -2.26963069278621
C           9.47719575831252   13.84733459168122   -2.40074649820012
C           8.40011193612236   13.86867003748506   -1.47267626471332
S           8.51789618078707   12.45260276294813   -0.43530771060726
C           7.46021736117911   14.86185951003304   -1.40902685911634
C           6.35532843191462   15.03976570227714   -0.52518318821098
C           5.97372747383477   14.09705904924336    0.44901524615176
C           4.91501308268092   14.36453519210979    1.27518405586564
C           4.19580649583859   15.57013149029506    1.16692821180620
C           4.54838771450905   16.50585309657784    0.20057388956849
C           5.61149804335820   16.23373439684808   -0.62987296009209
C           3.15686998689621   15.57637275683677    2.16857756253362
C           3.22961199544692   14.37525111418462    2.89859347590686
C           4.34920532907075   13.50383749100529    2.37963352242009
C           3.81251058285100   12.16955686340810    1.82740267671427
C           2.75719120947258   12.35748453314885    0.74431803844751
C           5.40171371743366   13.22183805059324    3.46760450412789
C           5.99536848827482   14.49365355841528    4.06075191503949
C           2.35390125044264   14.12017847875346    3.92381093871195
C           1.37089995281937   15.06813730172120    4.24860100529340
C           1.31107963083456   16.25851906233938    3.50917586180027
C           2.18922799310650   16.52208739130053    2.47883524476048
C           0.40976544794736   14.86771981403340    5.30764697495150
C           0.34163467731308   13.80568214080211    6.12663168071056
N          -0.60413391967528   13.69863388782358    7.11740605213319
C          -0.79728126905227   12.65137757034717    7.95999396032170
S          -1.60289477704672   12.96004995035917    9.47182126460764
C          -1.39462254440592   11.29380174111551    9.91388689860751
N          -1.92044140637837   10.87625052786659   11.13389985973142
O          -1.77349802744968    9.70770760334375   11.44847042989319
O          -2.49325124649759   11.72261813845680   11.80446715524196
C          -0.74190992878774   10.56476853763865    8.95376261354627
C          -0.40317534973429   11.31887133650826    7.81899638621692
C           0.18270367221265   10.73453270483927    6.61902079001613
C           1.01549302458392    9.70201002677286    6.62575249632532
H          14.11514703594944   -0.66813711284924    6.24304883242564
H          13.44630944179667    0.71335203843564    5.44644154657621
H          17.30728179942757    1.58974973552244    2.52776247371226
H          13.73644098637784    2.19624634762772    4.08046250388653
H          15.76647310354281    3.17775422827613    2.01900331367569
H          10.48028500914725    7.51155814666679    1.84741366660772
H          13.09021825673380    8.48639357449110   -0.95271307811014
H          12.34651709311510   10.64793676120320   -2.14976260523349
H          11.18811916979441   12.62551907758702   -2.88713757426595
H           9.59140258864741   14.62514040610685   -3.13519131564179
H           7.59480951932005   15.65323953371214   -2.13801630806984
H           6.50699753240455   13.16587728002966    0.54350368716579
H           3.99992865382900   17.43079537890484    0.10359222343789
H           5.89692589759089   16.95569883183495   -1.38174686145331
H           3.38607723238488   11.59670060685349    2.65340740277667
H           4.65035741955234   11.59868728859542    1.42248426660661
H           1.90056156530024   12.90497898295305    1.13130289718487
H           2.41411509523428   11.39010602114494    0.38553573196345
H           3.16539142141313   12.91107161924680   -0.09821040749224
H           6.20018849708902   12.61794757398170    3.03217880916820
H           4.93482353278720   12.63558828438264    4.26165997718420
H           6.49372514790156   15.08004018907981    3.29217681922856
H           6.72409551489581   14.24246219311185    4.82755429885489
H           5.21874159680436   15.10773555522340    4.51147923312341
H           2.42106092320753   13.19460585965586    4.47408684621949
H           0.55311413943642   16.98711481750839    3.75917619041615
H           2.12300987266950   17.44677718008861    1.92548527374783
H          -0.31852778179533   15.65991477430388    5.43339201326398
H           1.03553002909819   12.98349497795217    6.07550466989279
H          -1.14177840633353   14.53376606657413    7.31338256970091
H          -0.55599639377894    9.51174029841699    9.06040975650571
H          -0.13329150368556   11.17271499371824    5.68080644313543
H           1.36105986137990    9.25365263420217    7.54137915059375
H           1.39374757482557    9.27856074508902    5.71192459549243
