110
 SCF done       -178.958217779759          0.000261805944
C          11.92559194265660   -0.22647806199557   -5.80603318882857
C          13.02302547556765    0.24967567722842   -6.43857025354181
O          13.97390130946968   -0.49303429737850   -7.03285583469622
C          15.03203164686366    0.19681502843425   -7.65342220226583
S          13.08660494941776    1.99971959128805   -6.40016237844117
C          11.59368352884758    2.05087795794329   -5.50906421284002
O          11.01819345473980    3.20613429918247   -5.11632886414432
C          11.66598893102697    4.39793482337255   -5.48982215708455
C          11.08801778360946    0.79553019222459   -5.26294852259070
C           9.85971698338173    0.60037916981341   -4.54439036898003
C           9.28448188488310   -0.58875612660988   -4.30578057987591
N           8.10525741178136   -0.71019891987081   -3.61164186167807
C           7.44112125831186   -1.85758251352049   -3.36183974147469
S           8.03780971819094   -3.37766576608299   -3.94290845169291
C           6.66012138709316   -4.17287546080487   -3.23589913770339
N           6.57950570870793   -5.55040331620095   -3.38298963088131
O           5.62042815768056   -6.12770336432757   -2.89342154849322
O           7.48855350275688   -6.09348036758058   -4.00036589963693
C           5.80595456773357   -3.31212790685120   -2.59822133720348
C           6.22953027531477   -1.97085911161519   -2.64977328212707
C           5.55258649943310   -0.85893692647407   -2.05779193063529
C           4.34286400792887   -0.91192561098892   -1.44062187041384
C           3.72356821207182    0.20532565199894   -0.85062037507234
C           2.49772488211964    0.17934027874034   -0.23854717761314
C           1.83529443441853    1.26595549796931    0.38731314717652
C           0.62204927574127    0.95458228165433    0.91724844899293
C           0.24594378196201   -0.39723379159541    0.74018163884456
S           1.50023244169120   -1.26395663330079   -0.12550954329892
C          -0.91808417684505   -1.01126507715131    1.14860218639376
C          -1.98925132377391   -0.43705281357723    1.87719095383181
C          -3.02106109939671   -1.28504550472642    2.12188258306814
C          -2.84254354755655   -2.59671654863927    1.59916865572742
S          -1.25891760737878   -2.69313763516380    0.81386395467512
C          -3.63155623951407   -3.70607926593928    1.64975297707675
C          -4.98447586585943   -3.82805876073523    2.11543326277556
C          -5.43322913300707   -5.10368452308029    2.51007815965830
C          -6.72245031246524   -5.27677748735243    2.94517444223573
C          -7.59463345737855   -4.17463602689729    3.02908496154263
C          -7.17935227446259   -2.91938949708491    2.60705445698976
C          -5.89093336885237   -2.75740329612932    2.14269795016835
C          -8.85001622687627   -4.61708451506313    3.59143302888191
C          -8.76322437218458   -5.99542248036978    3.84822985973759
C          -7.41942551032724   -6.53797826133980    3.40543946941184
C          -6.66775282037497   -7.22920051546517    4.55225387702471
C          -6.50406229698392   -6.32151049096301    5.76606250087100
C          -7.69047690205275   -7.50872733259242    2.23239417054354
C          -6.46210101421438   -8.04072798299554    1.50613909829600
C          -9.82485659887029   -6.67767270918350    4.38999462507966
C         -11.00523346614972   -5.98895700389872    4.70307711379083
C         -11.06544956443875   -4.60957532823492    4.46350155767117
C         -10.00792953688318   -3.92029205711345    3.90640912047381
C         -12.17344097350909   -6.64152365776360    5.25793396853393
C         -12.39214261192330   -7.96354999197981    5.29745137767321
C         -13.55446722860835   -8.61034666153159    5.86540831475256
C         -13.43017247574764   -9.87262761686964    6.38923973896568
O         -12.29929265477396  -10.60949228099076    6.36250251551106
C         -12.36136065992520  -11.88986554325602    6.93980430663299
S         -14.88082642686715  -10.42824827756439    7.17442573815891
C         -15.68043626614813   -8.93513870710286    6.76122051770859
O         -16.97111434066778   -8.69999722975098    7.07897484974507
C         -17.64535317137350   -9.70727237759173    7.79067761868749
C         -14.88019732162584   -8.08009810952157    6.05450612664704
C         -15.45648919498249   -6.85821314027251    5.50877569464758
C         -15.15310933539065   -6.31688721773944    4.33677364202714
H          11.72168310638683   -1.27627828321688   -5.72802495644859
H          15.68430309588191   -0.56535424462454   -8.07418928612021
H          15.58854526404915    0.80112294488719   -6.92885062658376
H          14.66379073805712    0.85036264690854   -8.45153538908879
H          11.06043324231253    5.21025178651600   -5.09316600878503
H          11.73455996217610    4.48443621570043   -6.57932167019612
H          12.67508330118841    4.44712225859589   -5.06718526985597
H           9.38848466523991    1.50664974726434   -4.18836273798707
H           9.70995215335538   -1.51955544710035   -4.64512802012785
H           7.68791534300173    0.14722020025367   -3.27158558354325
H           4.91441273098097   -3.65802926241135   -2.10921692874319
H           6.05025192280664    0.10238928576304   -2.10083975303279
H           3.80397219061641   -1.84722701436534   -1.38748318702707
H           4.24531576905463    1.15381336581532   -0.87341690373341
H           2.28334086416543    2.24361162506490    0.42524313629067
H          -0.01351846693084    1.65712877439663    1.42626297205112
H          -1.95963395195716    0.58562676530909    2.20957401787052
H          -3.88269119831891   -1.02056768923872    2.70685533580051
H          -3.18025511208795   -4.62629227869602    1.29899302257367
H          -4.73483604159681   -5.92709203007800    2.48999966849849
H          -7.85886234163822   -2.08010585937733    2.63247930374008
H          -5.58695435878075   -1.79784062350156    1.75567840341943
H          -5.68086110175954   -7.53458646222011    4.20171602811517
H          -7.21579444016015   -8.12828194233846    4.84222869266382
H          -5.95449542207160   -5.42139030467681    5.49862264745301
H          -5.95688237843518   -6.83861231080742    6.55125889582956
H          -7.47460499497719   -6.02610779619899    6.15856895362224
H          -8.32582304928469   -6.98927870472703    1.50989351259034
H          -8.26360928979485   -8.35081817207652    2.62730038537627
H          -5.92594366790426   -7.23612195363962    1.01078742705344
H          -6.77467081306551   -8.75452874625109    0.74662201359771
H          -5.78647022014672   -8.55037114764195    2.18806202263933
H          -9.74926993990425   -7.73498292525913    4.59301585176682
H         -11.97485549865159   -4.08069225598361    4.71233825531485
H         -10.08118046509911   -2.85872253418145    3.72093159110896
H         -12.93448206983219   -5.97473407834181    5.63904323316378
H         -11.63909044278068   -8.65672487590575    4.94827382512241
H         -11.37830861624126  -12.33469678440046    6.79944864292288
H         -13.12115952917939  -12.50853530391569    6.44996237199046
H         -12.59096703036059  -11.82969935942327    8.00911016580299
H         -18.65136232035339   -9.33233534758170    7.96763564862975
H         -17.15350661955160   -9.91318369577935    8.74779833645431
H         -17.69357878103391  -10.63584091936499    7.21155419093698
H         -16.25490229160934   -6.44237154226844    6.11021151489297
H         -14.39594520740308   -6.73075198592109    3.69327891876862
H         -15.65632272449207   -5.43309008378840    3.98367107575340
