93
 SCF done       -169.449609958210          0.000627398790
C           2.34415465682896    2.28782844202122   -3.73387388933292
C           1.98884047406061    2.71989609549591   -4.96245856109161
O           0.78543093654686    2.95819884706014   -5.52330445606151
C          -0.33935812382643    2.72186163466784   -4.70339194743813
S           3.37080144694818    3.01462811479665   -5.99156989518251
C           4.44358725358993    2.53582231146290   -4.70549356815344
O           5.77630646824380    2.52656770097910   -4.83696879896559
C           6.30309001408689    2.91093524687362   -6.08641861866431
C           3.76299127954284    2.17267640686410   -3.56057896748957
C           4.43562132621360    1.73686993432010   -2.37930366155057
C           3.82914865884491    1.33916188047808   -1.23845309313724
C           4.52489670801768    0.89604690729632   -0.08404930292529
O           5.88581625539485    0.86102199577240   -0.02950659465289
C           4.03407625360915    0.43145177106365    1.12089147985813
C           2.81486804190815    0.14363657214466    1.86638397477075
O           1.65087257397571    0.26683842506327    1.57989695327830
N           3.28711343720806   -0.34981282043267    3.08822799780731
C           4.66869395084355   -0.41237520789635    3.20721920238012
O           5.26475097086265   -0.81752699686334    4.17819113701763
C           5.15464627935652    0.10079084023267    1.92803137847650
C           6.28213844396434    0.38139330144427    1.18222858722256
C           7.66770858841188    0.23779175632192    1.47320445154507
C           8.09337106510315   -0.24392101361905    2.66090369962298
C           9.46904564935302   -0.44206511153129    2.99515162881959
C           9.90945780196575   -0.95101227982571    4.15858670531621
C           9.01324214814772   -1.36315485445026    5.28570650504440
C          11.38303389751736   -1.16025236328463    4.39363025259172
N          11.81681301225747   -0.53381781242589    5.61975874248447
C          13.06263094034190   -0.10515354236299    5.86234329008330
C          13.48979229087708    0.33296302544195    7.08184509665112
C          14.79572846959430    0.77278683767550    7.33441924718323
C          15.25338145746857    1.17045633198604    8.56677498712034
C          16.56113143060366    1.57841840129069    8.91109700653945
C          16.72511252583925    1.88208967274502   10.23051854801313
C          15.55011706616235    1.74104680907487   11.00047132328529
S          14.22874574695451    1.20609946436143   10.00100737598034
C          15.39363041105054    1.96818875406616   12.35943294588809
C          16.36998439226215    2.36695944507659   13.29029642591996
C          15.90335474768266    2.47584144048855   14.57019646222836
C          14.53566645889579    2.16852002207831   14.71204420900471
S          13.84939190149219    1.77415249726356   13.15964685415153
C          13.72930773127541    2.24516456680687   15.84105353998384
C          14.15042365838523    2.30287006405054   17.16028882252801
C          15.34329228512899    1.82568048742915   17.69732278039252
C          15.79697276034544    2.06859803444876   19.03670339931431
C          15.36085490787465    3.06767770283979   19.87988027984087
C          15.84977149965255    3.26869276506469   21.18278122425556
N          16.20651396630796    3.47528429884578   22.25599544982769
C          14.40560692044989    4.04210409968753   19.53399719515665
N          13.65817238445257    4.88779609738847   19.31480883559212
C          16.87641569925144    1.12702134064030   19.32893339033946
C          17.10388085575811    0.34430635081041   18.17275659946409
C          16.16496453042672    0.76363260096414   17.10490890768873
O          16.08000182890479    0.25532637364207   16.00008441463347
C          18.05499326657604   -0.64273246705676   18.12283533350540
C          18.82225702538090   -0.86770664077806   19.27265190232573
C          18.58736196075770   -0.08078272530935   20.42141900051405
C          17.62267807506496    0.92035723058484   20.47130050947918
S          19.64127667261305   -0.53003475004315   21.73060306449474
C          20.37197044509467   -1.75258455012344   20.72527525193193
C          19.85721766196297   -1.82253564182806   19.47593128292817
Br         21.74948403998000   -2.82233759451826   21.42018527763349
H           1.64653447709241    2.05163274025265   -2.95394948965899
H          -1.20593690855600    2.96348906491281   -5.31484691367811
H          -0.32128157316329    3.36269796884181   -3.81710457904056
H          -0.38596098778778    1.67412993368246   -4.39258623779846
H           7.38478958449837    2.84070124777368   -5.99363896600560
H           6.01574486664548    3.93751546224801   -6.33358548042909
H           5.95278784874297    2.24443232163953   -6.88056062556808
H           5.51529425496017    1.72874306025571   -2.43322651462449
H           2.75496238963971    1.32441055097567   -1.13857922510311
H           2.66545092832519   -0.64253161449577    3.82832086093478
H           8.35796987182519    0.52550765003172    0.69284566712820
H           7.35175146315158   -0.50037246059704    3.40165590563683
H          10.19036139335661   -0.16967445538286    2.23451335309334
H           8.77066366273109   -0.50489749930353    5.91382273903383
H           9.49118111599273   -2.12137958200903    5.90324878725444
H           8.07228881578374   -1.76386106261257    4.92021939271887
H          11.96958132598516   -0.75356516042343    3.56622570141034
H          11.57564296574979   -2.24549381971407    4.44299010280023
H          11.17948071620791   -0.58560153151110    6.40103784837448
H          13.73652033879330   -0.11168065219609    5.01583116388731
H          12.79734159034939    0.32711431006837    7.91320995641748
H          15.50247511090276    0.78349696626937    6.51467654263943
H          17.34391866343669    1.63053477210098    8.17456428640572
H          17.65317193610060    2.20405976045903   10.66677063172963
H          17.38775477800220    2.56297659338857   13.00346538508802
H          16.49651946792047    2.80713367264039   15.40272324260957
H          12.66241240695503    2.29892994819685   15.66449277101951
H          13.42223971997742    2.68163804458214   17.86847587394211
H          18.20415868192146   -1.22561541012709   17.22734231719843
H          17.47656293750647    1.49042556179024   21.37356488808885
H          20.18970267263544   -2.51811290822390   18.72701903979976
