86
 SCF done       -160.982105813199          0.000958358000
C          -4.62998057055165   12.25854695037335   -7.86807695343502
S          -4.78203169228511   11.43315068456255   -9.50773942347988
C          -4.24879145063370   10.19719428876675   -8.41052767463337
C          -4.20578167762644   10.94366049654143   -7.28509949864450
C          -3.78940778235785   10.63128207954658   -5.93886631794507
O          -3.33219214363069    9.57858512399138   -5.55835927849061
O          -3.97952197358325   11.69113444662184   -5.10487832159384
C          -3.52169811471922   11.50596051177401   -3.78449778724236
C          -2.03501713699548   11.38582508771262   -3.73777134116498
O          -1.45225598842561   10.98591589291279   -2.58555804408367
C          -1.07241982777732   11.60052387074259   -4.68111061737150
C          -0.81324408021990   11.98060179105015   -6.07612195456973
O          -1.55853112366581   12.31764490287562   -6.95957712536167
N           0.56761569731664   11.87998293463995   -6.19294156770275
C           1.24530277536830   11.48242622314578   -5.03796961698554
O           2.43653924315972   11.34173300449968   -4.94784579708318
C           0.17546719533274   11.30448346284084   -4.05800955586376
C          -0.09885266940777   10.93039129055221   -2.76391989958108
C           0.78936473088667   10.54147117144998   -1.71770899933760
C           0.37778058704468   10.16206824239631   -0.49138526856807
C           1.19716443471658    9.77147295234509    0.62339642978716
C           2.45211081005663    9.29158902394865    0.62503700661351
C           3.27938815137194    9.01878365147197   -0.58882129545023
C           3.14231195009542    9.03340084207534    1.94666334058932
N           4.05346948324561   10.11607020208842    2.24787946043995
C           3.68728405530379   11.21837257185584    2.92399928083162
C           4.40695916000986   12.37499402612410    2.96109931216634
C           4.02910842783519   13.48768009615392    3.72626277391059
C           4.70384188383973   14.68331576797686    3.74807484935947
C           4.37012529766724   15.84507410163286    4.48042124558512
C           5.21916832797029   16.89390355547089    4.28404577967386
C           6.27078486960483   16.61557895483900    3.38434036397987
S           6.15792904322748   14.97967567417048    2.79912991408198
C           7.28253607115691   17.46785765039453    2.96637782716089
C           7.49367834401473   18.81044624045858    3.32829040771253
C           8.58290213579731   19.37620540558900    2.72501671156231
C           9.28215720521157   18.50616097142147    1.86435446809022
S           8.51256715329086   16.93836116325962    1.83768643017583
C          10.41882140257820   18.80536258219247    1.12895982710436
C          11.05736495544487   17.88297577273197    0.31651816471948
C          12.19720296098217   18.13319270924219   -0.43179957194086
C          12.89442914449754   17.19621036642224   -1.26658263509297
C          12.57601145832672   15.87393738428351   -1.49314268709902
C          13.31938918844130   15.01294600924845   -2.32136405225211
N          13.87890708151857   14.25442306163511   -2.97976806103568
C          11.47948958049219   15.18236163643151   -0.94502815274649
N          10.61938363132069   14.53106234337405   -0.54576653861276
C          14.04049739734167   17.89038858680734   -1.85570030892254
C          14.04439585462974   19.22724657644948   -1.39153766078451
C          12.89126226617586   19.42824196477864   -0.48437286724054
O          12.60563515376710   20.46596732156952    0.08550837534181
C          14.99903851723538   20.13928588575943   -1.76431327154456
C          16.00388541545547   19.71150332294421   -2.64027958608595
C          15.99203944551989   18.37543828965676   -3.09857730285781
C          15.02332763445212   17.45183816649497   -2.72093630903233
S          17.32329363971297   18.05560572462360   -4.17124225527602
C          17.86832519596885   19.70165190359407   -3.98883194141019
C          17.09642989140010   20.45304754503969   -3.16980907743640
Br         19.40765489100420   20.27328540800283   -4.89842158273968
H          -5.57415450832391   12.66317554045795   -7.51569676490026
H          -3.84928263799896   13.01354292092790   -7.86873549845960
H          -4.03864187981091    9.16987412344429   -8.63423085449430
H          -3.96308910052130   10.60003542322247   -3.34575566188764
H          -3.86043014154432   12.38344631302278   -3.22447270962606
H           1.04977278206589   12.07494065082170   -7.05925237650502
H           1.82922858664339   10.61070110076202   -1.98960148766810
H          -0.68697172235252   10.18061787623591   -0.29482834154547
H           0.69669481021789    9.85442111357458    1.58122612097924
H           2.65897385264555    8.65050389342898   -1.40260466312724
H           4.04463745457485    8.27621946770357   -0.36998289475105
H           3.78053340984440    9.92347761126736   -0.93476188863664
H           3.71467879625953    8.10186385365717    1.90613384523184
H           2.41611800766853    8.96339397125653    2.75918815716738
H           4.86047032269160   10.19906822779211    1.64483193966585
H           2.77340654850094   11.12855375835595    3.49632741781880
H           5.31076545739846   12.45547630969421    2.37219413248139
H           3.13770270492118   13.41072555153504    4.33558997014033
H           3.51214629070330   15.87164135253059    5.12927500351852
H           5.11674437283412   17.85297837878156    4.75862313472182
H           6.84709277547450   19.32768575333709    4.01446541083676
H           8.90344257280523   20.39179423146121    2.87488232210882
H          10.81797354598564   19.80629671808482    1.20449077300289
H          10.62685926205081   16.88978062476291    0.27198703235868
H          14.97395189631363   21.15192180422104   -1.39305505596171
H          15.06013818101272   16.44434990162347   -3.09985814358773
H          17.28690285170337   21.48689565781922   -2.94596068699072
