94
 SCF done       -171.702210435964          0.000749813372
C          -4.51516989493780   -6.17645145220959  -11.08583983838664
S          -3.96567664512163   -5.53371244673448   -9.60724165572011
C          -3.86190746392682   -7.11260494170735   -8.87499953193150
C          -4.22844677712541   -8.10305641016309   -9.80249682003588
C          -4.61355924711187   -7.55321109799403  -11.06453901144892
C          -5.02944662643055   -8.41965664580289  -12.10274831138925
C          -5.03362219303169   -9.76865689147811  -11.91483722958963
C          -5.46107118759888  -10.72066776296028  -12.98505580192319
C          -4.59809707678851  -10.31374211179015  -10.66200158629951
O          -4.60099225459459  -11.67192281641015  -10.61523218285579
C          -4.04329869552361  -12.31639163923825   -9.49577533013205
C          -4.21470690761796   -9.49805118154428   -9.62519270795932
C          -3.50620979824607   -7.29960365804865   -7.53168620491333
C          -3.03420462089339   -6.33791470520064   -6.68428331218959
C          -2.77222931059528   -6.60167442456124   -5.32756125202443
S          -3.34288286006622   -8.07527434489179   -4.61602564264208
C          -2.64059313366892   -7.72634334972100   -3.06204030101752
C          -1.98599666473373   -6.48071256164120   -3.09528843072298
C          -2.07588605192217   -5.83497352112525   -4.37153557998613
C          -1.46742561298462   -4.56934586307562   -4.55064704855230
C          -1.49897607477754   -3.86519368183464   -5.77380218345745
N          -1.48523788758562   -3.23184569203324   -6.73070143446257
C          -0.80234968117270   -3.96592936434344   -3.49456442100353
C          -0.72127589571060   -4.58910021721228   -2.25351544507182
C          -1.29993757310050   -5.83044308179256   -2.04018387066805
C          -1.17132043865398   -6.38286899974248   -0.74748373692762
N          -1.02153095399315   -6.76149932933468    0.32560193877214
C          -2.76817819904389   -8.65523975642438   -2.01961821334887
C          -3.59476356787631   -9.74441516489467   -2.10623076023727
C          -3.71045644174536  -10.72045850253305   -1.09636195225474
C          -4.62855693532070  -11.76815632451972   -1.09750103563765
O          -4.73606697564108  -12.62603831670005   -0.00892374496803
C          -3.89266419993581  -12.40831118147172    1.03390508970542
C          -2.94308675042512  -11.34884706530007    1.01377981743086
C          -2.18925939591091  -11.28937822577284    2.13958196936377
S          -2.63077770348299  -12.53512524771451    3.24521433711963
C          -3.84291565832408  -13.13787127410794    2.17636346356913
O          -2.84242770898026  -10.50783707999346   -0.04844293437959
C          -5.62478160868244  -12.10619798845405   -2.04102175008637
C          -5.83230576093889  -11.76305218416489   -3.34920352257479
C          -6.98820362961560  -12.14652329898673   -4.05055282471998
S          -8.27972449253580  -13.00190237651807   -3.25196335285851
C          -9.30401359294371  -12.98806374380528   -4.65911084692800
C          -8.65853849401588  -12.33741524365171   -5.72553837710953
C          -7.34532669157960  -11.87147873042700   -5.38595275170528
C          -6.58050951896478  -11.20683174710247   -6.37446559926957
C          -5.24449722072606  -10.80285121587369   -6.19416109855741
N          -4.14330437423769  -10.47401914617029   -6.18522377753879
C          -7.11879371177466  -10.96453133622561   -7.63150688207116
C          -8.39561203150047  -11.40700051069938   -7.95422176395626
C          -9.16129109905764  -12.10030921032629   -7.02999511567949
C         -10.43053556287139  -12.53254908693812   -7.47087131984249
N         -11.43918649741991  -12.85039533766548   -7.91740757344211
C         -10.59093302662135  -13.55094696788490   -4.63058060782394
C         -11.14226544663880  -14.15681593825874   -3.53993180778850
C         -12.44122115715188  -14.70182736112980   -3.50052777954464
S         -13.00733430132406  -15.44797279647469   -2.01142579434824
C         -14.51655044713685  -15.80023869945032   -2.72968845576606
C         -14.57753547745373  -15.36296546127841   -4.05370773394982
C         -13.41828511312124  -14.74667508229399   -4.49508187868408
C         -15.92404105835034  -15.71863225368478   -4.56463542885558
O         -16.39490712853395  -15.51969957308629   -5.65633271036638
C         -16.60203709352830  -16.39755633022803   -3.39946617137659
C         -15.74032129634146  -16.42400156074851   -2.34038982269182
C         -17.94276486213657  -16.88862525728631   -3.52537931785078
C         -18.63622862224959  -17.51569925443892   -2.57336237629724
H          -4.73697233744103   -5.51850562519405  -11.90268321757561
H          -5.33574136025220   -7.99647468660087  -13.04747732188712
H          -5.75255359667618  -10.18589645659973  -13.88452136982653
H          -6.29927387071013  -11.32282305327296  -12.63803116591661
H          -4.64835973570084  -11.40553035954838  -13.22127166047583
H          -3.00759743371743  -12.00555586309416   -9.32988985805732
H          -4.07101525597593  -13.38044415142711   -9.72547634389437
H          -4.62162825427743  -12.13014270038179   -8.58581104116877
H          -3.88680096545969   -9.90408137436956   -8.68210055399054
H          -3.61839753358853   -8.30680116653194   -7.14842478399531
H          -2.83672930730310   -5.34542490793162   -7.06139058689636
H          -0.34372407710148   -2.99972554818822   -3.64126004933075
H          -0.20155672470826   -4.10213925481163   -1.44205112851650
H          -2.19536663894047   -8.49653163275223   -1.11931606556143
H          -4.21175363529219   -9.84914157009838   -2.97946959539847
H          -1.41425733844978  -10.59139808156138    2.37719220382217
H          -4.43948062456819  -13.98314816246796    2.44776800700511
H          -6.33787671701111  -12.80550786249143   -1.61490342543781
H          -5.10904680986756  -11.19329079722161   -3.90830170364817
H          -6.53533396793990  -10.43183277868591   -8.36837852543889
H          -8.79439588300405  -11.22002723414312   -8.93969487273854
H         -11.16775719281132  -13.48384515938436   -5.53877166309353
H         -10.55926116129013  -14.22954625234353   -2.63032635085564
H         -13.27718143240787  -14.34625418261354   -5.48219997816472
H         -15.92843051985273  -16.83780356525172   -1.36661326709778
H         -18.38730844681086  -16.71297441715240   -4.49713006629953
H         -18.22274385804136  -17.70797715834173   -1.59783287994110
H         -19.64187093861629  -17.85713197221224   -2.74461539765383
