117
 SCF done       -196.604307753465          0.000394239196
C          -0.70863230519577    0.82433737615723    1.98454123781737
S          -1.07173745592118   -0.60109097408317    2.84370406421276
C          -1.60451617252094   -1.42386840706685    1.40148777398473
C          -1.48805728021576   -0.57514430868456    0.28849676754998
C          -0.97413263560757    0.71333724052439    0.63507865321344
C          -0.80112573109996    1.68895763711862   -0.37467330060574
C          -1.12031156513182    1.40727871618645   -1.66799626139624
C          -0.95709246712457    2.40905807663778   -2.76564089245202
C          -1.63275298904997    0.11238839965701   -2.00783424736310
O          -1.91129473081671   -0.04707536454246   -3.32872472216612
C          -2.41807190471528   -1.28252110212761   -3.76877015014788
C          -1.81193281698179   -0.85505835310566   -1.05096128464606
C          -2.07578338890264   -2.74632191974971    1.42980451797451
C          -2.18315381252223   -3.51292007281694    2.55361558655473
C          -2.66471807959733   -4.83212575516657    2.56617236647145
S          -3.16189214150557   -5.62260582557058    1.09807818351358
C          -3.58320647868657   -7.09865934558347    1.91389817592288
C          -3.35670722386188   -6.97733683306762    3.29531349330474
C          -2.83533329124858   -5.69496946202567    3.66561451793090
C          -2.56742440329630   -5.42737067509274    5.03115575153119
C          -2.04448996380780   -4.20441629506453    5.50408677457528
N          -1.61900592864993   -3.25032015656302    5.98006279280157
C          -2.82157531125248   -6.39699049562854    5.98797179406265
C          -3.33655708191492   -7.63856997092932    5.62885324355506
C          -3.60452777890539   -7.94266842884939    4.30412503052868
C          -4.12015047558884   -9.23147527261321    4.05091778380030
N          -4.52334361864788  -10.30143738289580    3.94178968969912
C          -4.11356707265152   -8.19642887275475    1.22220200435178
C          -4.35707573778768   -8.24979772963381   -0.11860271298585
C          -4.98292725732369   -9.35070873272332   -0.73898191334493
S          -4.56219037331364   -9.77835118873202   -2.36987410196703
C          -5.41695826540471  -11.29292846417808   -2.29606236457965
C          -6.12221595230234  -11.39835024040234   -1.08586683065248
C          -5.88335182296965  -10.28737500606950   -0.20615134541683
C          -6.64144945929095  -10.16885839034589    0.98765503659070
C          -6.69703868853027   -8.98830423692120    1.76149332183210
N          -6.87138076772833   -8.04688056920921    2.39474267336603
C          -7.50208011315308  -11.18754380808748    1.35974762533518
C          -7.71915879700281  -12.27563379277057    0.52055304826047
C          -7.09389864789008  -12.36427206925191   -0.71381463482969
C          -7.59047376171325  -13.36966376512600   -1.57204790501408
N          -8.10978900984401  -14.18419379275549   -2.19246378706930
C          -5.25530244333219  -12.19496220062554   -3.37124143678828
C          -5.31295588014460  -13.55082902852005   -3.26657123477615
C          -5.22045365064873  -14.42337974700898   -4.38057654900494
C          -5.32593211872582  -15.79795805749019   -4.30125626151755
O          -5.29886106171336  -16.60316557486461   -5.42145095531226
C          -5.16286225817756  -15.96322893316269   -6.61316318568155
C          -5.03949645514824  -14.54625741247363   -6.69540188346197
C          -4.90534868065878  -14.10298708297434   -7.96958709967507
S          -4.92881190761210  -15.41291049184666   -9.09226372779746
C          -5.12090680210474  -16.56766362575146   -7.82645736771175
O          -5.06124495694052  -13.75958567987310   -5.58740427210597
C          -5.48930050615345  -16.52343580789617   -3.08546684079401
C          -5.74231439391734  -17.85387225680838   -3.04552641680418
C          -5.92399786061866  -18.64776398932361   -1.86415896142916
C          -6.40369931761650  -19.93434604357756   -2.00254541964535
C          -6.62695492759258  -20.75129431273524   -0.87519453515188
C          -7.11459935428682  -22.04592387802023   -0.73666508020050
C          -7.60207445812550  -23.02343776554047   -1.75871560671325
C          -9.03332243910187  -22.68366922288173   -2.22649863844219
N          -9.07804966396452  -21.42031271561195   -2.93928764186469
C          -6.66045876081319  -23.17716190782137   -2.96144091258284
N          -5.32945215124669  -23.54128464029573   -2.49987580112701
C          -7.10606688219754  -22.34103176665491    0.67855439600569
C          -7.47257897732751  -23.44367750306545    1.35860647638951
C          -7.32684943208765  -23.53656877073910    2.83705994675753
C          -6.86048771591535  -22.27813810897074    3.49750185561898
C          -6.50521941705559  -21.18025354511730    2.80684042875232
C          -6.59738650783607  -21.16357376191489    1.39329772740504
C          -6.31037558513583  -20.20785512365033    0.44427181644912
C          -5.80210989736534  -18.89149772742978    0.55742845533290
C          -5.62199921381828  -18.14025955888528   -0.55475281849352
C          -6.32687327429672  -24.63771742229418    3.13118828182612
C          -6.60422133955725  -25.73400615620909    3.80895981131555
H          -0.31936259530502    1.67588959471816    2.50651387619156
H          -0.41384674998062    2.65964259314517   -0.10371923602655
H          -0.55923305940053    3.34354086589926   -2.38012442036748
H          -1.91677238077271    2.59753358457541   -3.24419219770193
H          -0.28579359832896    2.02032606437999   -3.52958782903680
H          -2.56116139832091   -1.17665370886412   -4.84300152267222
H          -3.37838104505008   -1.51415591772560   -3.29693602500012
H          -1.71288145584775   -2.09752588923411   -3.57624499321498
H          -2.19816157514979   -1.82879234334124   -1.30344488469590
H          -2.37698588932153   -3.17300478700566    0.48152783325877
H          -1.88686965866046   -3.08667166330869    3.50054839075325
H          -2.61823401101936   -6.18058670475572    7.02600447199969
H          -3.53243589845386   -8.37822022603269    6.39064488045807
H          -4.32858591901047   -9.06871866815366    1.81885722702019
H          -3.99791850097035   -7.45543176143888   -0.76043846915554
H          -8.05549890412978  -11.10110660451631    2.28217629169860
H          -8.43914652389703  -13.03058151884348    0.79932279917291
H          -4.99508221517720  -11.75860705164101   -4.32586165770331
H          -5.42964494880466  -14.00023781964504   -2.29690423038211
H          -4.79622427849706  -13.09532300233199   -8.31123874729677
H          -5.19100656726695  -17.61193964186393   -8.04716981032501
H          -5.42772138707917  -15.95743614860650   -2.17313975941122
H          -5.85155528759514  -18.37843486879898   -3.98537816824297
H          -6.63970377470042  -20.30260271992953   -2.98876823740090
H          -7.65160448096064  -24.00320339859771   -1.27329347464800
H          -9.69527203749728  -22.70688931082644   -1.34263061479321
H          -9.36483068613254  -23.46521741133907   -2.91648510156811
H          -8.88376409635736  -20.65470640807472   -2.30211224967497
H         -10.00145203617291  -21.26993319171790   -3.32978920256935
H          -6.68885233834872  -22.26312387938587   -3.56817061588273
H          -7.02822450933828  -23.99784385195176   -3.58500119840230
H          -4.96259628079856  -22.80609084174445   -1.90298187065944
H          -4.70103957339601  -23.64156209130626   -3.28963119617007
H          -7.84785136177438  -24.32879378668505    0.86284033089334
H          -8.28942990049658  -23.84078734643089    3.27065731727383
H          -6.79405129687083  -22.31081855223123    4.57463259820855
H          -6.15676625166852  -20.29480920812190    3.31917221809236
H          -5.56316510332252  -18.50094430767037    1.53616568883792
H          -5.22684793309875  -17.14058682060355   -0.46616212029188
H          -5.33526302626558  -24.45250751175209    2.74289172583565
H          -7.58731258415002  -25.93086370083946    4.20510640089381
H          -5.85433781910817  -26.48179060423103    4.00345377940716
