74
 SCF done       -142.930398482086          0.000788762720
C           0.76706048096213   -0.01722787855559    3.60283518507654
S           0.93941547840744   -1.63382934651177    4.10464292705298
C          -0.41849546991085   -2.15458232583869    3.14149419818822
C          -0.97560542847393   -1.06010874399063    2.45777648930201
C          -0.28915166760307    0.16319015302123    2.73200291709915
C          -0.73801171254913    1.36334838781168    2.13245708114222
C          -1.82471464989975    1.35765791114011    1.31167824833113
C          -2.34072313147734    2.60207453364597    0.66359463630949
C          -2.51255268675910    0.12679101930058    1.05006878271638
O          -3.58592795058050    0.25215542999873    0.22933532309789
C          -4.35018416297945   -0.89404540446933   -0.05704185877289
C          -2.09159290168278   -1.05737870016459    1.60425438284099
C          -0.86187271995014   -3.48484631691487    3.10904490650746
C          -0.36522936245825   -4.50440030924357    3.86929756348218
C          -0.86463722371131   -5.81851024281304    3.83882113776196
C          -0.49056119561933   -6.90674896979524    4.62586874364745
C          -1.29212534126795   -8.02275799834777    4.25165358801319
C          -2.18534289511209   -7.58912991190620    3.18264917373744
O          -3.02836765024100   -8.19963008142848    2.55149958700048
N          -1.86919818126116   -6.25912544086306    2.99935930518055
C          -0.85765667840515   -9.10330854451691    4.97949834481118
O           0.15990657742680   -8.73311884233256    5.79651329889306
C           0.43390928375758   -7.35952972537085    5.62941556953245
O           1.29958851554872   -6.81539601912705    6.26109584255936
C          -1.31577993261782  -10.45991405633071    4.89624474666335
O          -0.51580660362217  -11.40613499586883    5.50004806130360
C          -0.49558108481226  -12.63610256363557    4.92381028617296
C           0.51644597481265  -13.53536386494319    5.10640945608222
F           1.56009649840063  -13.40371230012350    5.91911627069925
S           0.32910607000488  -14.98635735475378    4.17618142498242
C          -2.45136286468769  -10.72857783547407    4.22012619226968
S          -3.01891743031434  -12.33645817647498    3.87566613642130
C          -1.45957337168252  -13.12863388805107    4.00603173929622
C          -1.13189742236676  -14.34024614794217    3.43241412147516
C          -1.70879012777821  -15.00240041544561    2.32443177598234
C          -2.30542764025944  -14.39089461519432    1.25120709790206
C          -2.86633197987648  -15.04615148041672    0.12142949046781
C          -3.30712525013257  -14.20766610101144   -0.85439694782460
C          -3.11710386840497  -12.83588838110791   -0.55742390148174
S          -2.35821753127255  -12.65359438852055    1.00038450395526
C          -3.47078170781738  -11.73756048983067   -1.32099732430193
C          -4.03908886895771  -11.74467423397196   -2.61336381865412
C          -4.26048621648167  -10.49963057401283   -3.11685956024516
C          -3.88755833644960   -9.44233414617912   -2.24817727976318
S          -3.24704443178122  -10.09022385576467   -0.75926696468054
C          -3.99599617243082   -8.10738263226794   -2.57792458831496
C          -3.69412772990342   -6.96934567683919   -1.82104403526895
C          -3.77708182447098   -5.62471376672637   -2.45133515414727
C          -3.45832897905723   -4.69304702644716   -1.55742907859991
C          -3.16432226593946   -5.37556838095819   -0.26270251654517
O          -2.86908456510023   -4.80420014320465    0.78442338875916
C          -3.31700355065066   -6.79511550473624   -0.51003218528070
H           1.44290960014162    0.72968423271699    3.97041938453725
H          -0.21154677791796    2.28263542133283    2.34055594436191
H          -1.74565395118842    3.46414290793290    0.95187933859498
H          -3.37773030586027    2.76861880176189    0.95041058408643
H          -2.31822606368442    2.49628855780338   -0.42000182333572
H          -5.15262592286312   -0.55934363386917   -0.71255945607928
H          -4.77890852084349   -1.32902260058183    0.85082618662230
H          -3.75320711508961   -1.65301930256734   -0.57011971824874
H          -2.59840038482773   -1.98619497458927    1.40250932899699
H          -1.67295258069086   -3.68635576728829    2.42399121883499
H           0.43931096313907   -4.32381758830438    4.56883677538957
H          -2.30168227165292   -5.70015331852000    2.26026125339772
H          -3.05166187879720   -9.94697429546893    3.78791608904198
H          -1.56119857116149  -16.07249525613114    2.26652716531141
H          -2.92882619062637  -16.11899535465628    0.07632769628893
H          -3.76732812374497  -14.53449308950898   -1.76913612816616
H          -4.25928821470120  -12.65785701395497   -3.13597399624361
H          -4.68303150257306  -10.30316152464964   -4.08659685187705
H          -4.36446917660696   -7.91730575163367   -3.58000045432210
H          -4.04442500362578   -5.48274711427078   -3.48352967173221
H          -3.40400143056716   -3.62944989666494   -1.69351563692369
H          -3.19641468867154   -7.54604307511926    0.24827606056734
