91
 SCF done       -163.836228413008          0.000923471621
C          -2.17807038903750   -0.88200835927629   -3.76365437877763
S          -2.37322474794605   -2.54949352912040   -3.51125068249235
C          -3.84376417967321   -2.32736810351563   -2.58872973660940
C          -4.16412211414880   -0.95810287358198   -2.51598196243440
C          -3.19327150859279   -0.14548703205211   -3.19021551988235
C          -3.34159697454844    1.26059700753464   -3.22368776597701
C          -4.41433880835821    1.85444631841920   -2.63545632884527
C          -4.61640080107159    3.33497792924914   -2.64784738259645
C          -5.39996856232538    1.04131898910675   -1.98498127881921
O          -6.42970558395705    1.74446311080279   -1.46335053502524
C          -7.47881393419645    1.05719932810399   -0.81796352128185
C          -5.27423124341473   -0.32771787677232   -1.92441421793482
C          -4.42685518648655   -3.50648678883084   -2.09112336310797
C          -5.47602533710238   -3.65730922712143   -1.23097341753960
C          -5.94719310611678   -4.91552655274360   -0.81265769166008
S          -5.23998113457014   -6.38626237313773   -1.41181909394609
C          -6.29769269633843   -7.39990975262217   -0.47529153711840
C          -7.17164578584937   -6.61623330237784    0.29599878007780
C          -6.97958200950366   -5.20925976623524    0.09975971518968
C          -7.80027115115450   -4.29906641866814    0.81098005330973
C          -7.71822891552295   -2.90025414386971    0.66537756353598
N          -7.72855539813614   -1.75388162861506    0.59461988358197
C          -8.75664046958587   -4.77093488928064    1.69655722149747
C          -8.93034698070691   -6.13641049600267    1.89744310290358
C          -8.15970470855351   -7.06053172613681    1.21095764460746
C          -8.42525114520379   -8.42073300152180    1.47909942427704
N          -8.71731337341813   -9.49747133082726    1.75119712522819
C          -6.20266173099560   -8.79810518167654   -0.52412773182067
C          -5.32425082442921   -9.49755215209575   -1.29780091201389
C          -5.21400752285705  -10.90283595272340   -1.27626163168081
S          -4.73312440922215  -11.73802088946109   -2.72023492959947
C          -5.07366564303637  -13.30408381653098   -2.04541678052454
C          -5.49593207602835  -13.18049077336253   -0.71041276376945
C          -5.52553131516963  -11.82060030666056   -0.25796629294151
C          -5.73106283557348  -11.55501336443090    1.12107065539301
C          -5.47380419941150  -10.29859404602873    1.71389359369368
N          -5.20070448769105   -9.33852395041855    2.28063924100091
C          -6.06410021014106  -12.59112237116138    1.97613755264799
C          -6.16276845037732  -13.89910824672596    1.50802249255193
C          -5.85248194604993  -14.21390341185555    0.19531685486516
C          -5.92778662837384  -15.57981638891180   -0.15472863382116
N          -6.04093868617438  -16.70659664450870   -0.34473146531183
C          -4.89049548729985  -14.48371927702387   -2.79230887007660
C          -4.45579302723577  -14.51664149942898   -4.08116102514326
C          -4.18537859216817  -15.68862015415375   -4.84228229979494
C          -3.85333520225702  -16.91757680646648   -4.32517593881886
O          -3.72787963178998  -18.04626084760352   -5.10712149872276
C          -3.87462182361571  -17.84795139602847   -6.44611794938778
C          -4.12968635157045  -16.55628594184011   -6.99457284071754
C          -4.21657832826290  -16.56695964912938   -8.34700018030446
S          -3.99034632028409  -18.15765573594671   -8.97575270622421
C          -3.77539292157306  -18.81162504012416   -7.39503411269108
O          -4.28420950686434  -15.45660665138907   -6.20565947806665
C          -3.54190990383748  -17.12867826218553   -2.94344522401803
C          -3.55790264989748  -18.32279209630715   -2.32411035439096
C          -3.25174987835278  -18.44387091684312   -0.91577821328618
N          -2.93070070172614  -17.33255782398085   -0.24057116192141
C          -2.71102972072665  -17.46513319527436    1.05196838728935
C          -2.79121305215097  -18.68550043647447    1.70381492657050
C          -3.10404900661929  -19.79775142593206    0.91423986589382
N          -3.33137467703293  -19.66036036360562   -0.38880703855711
C          -3.18736170947573  -21.13434579890880    1.49203295112498
C          -3.47921448248486  -22.21331894010509    0.77675516155679
H          -1.33696861725600   -0.51406542775556   -4.31726042289239
H          -2.59188756237685    1.85113783601654   -3.72869144496385
H          -3.80449770598885    3.83192381190464   -3.17190234248717
H          -4.67086508979174    3.71200484248510   -1.62772484497031
H          -5.56056317188910    3.57837722624701   -3.13283517939318
H          -8.17876591184338    1.82746252760816   -0.49872223343669
H          -7.12512916838895    0.50174182883406    0.05286194913008
H          -7.98504989424536    0.36844978018210   -1.50042539643708
H          -6.02925263655391   -0.91587664470415   -1.43426954155092
H          -3.94296899112203   -4.41660641701790   -2.43051093350324
H          -5.96981560541221   -2.79729776180185   -0.81523892621644
H          -9.37236383913146   -4.06619547076942    2.23494462964546
H          -9.67703394327784   -6.48465108536048    2.59508381365591
H          -6.90502191102346   -9.34266417265063    0.08638240280222
H          -4.72738956666982   -8.97025797775081   -2.03151543233158
H          -6.23109516002634  -12.38005236614136    3.02126920438252
H          -6.44529159589669  -14.69030074960158    2.18631723903092
H          -5.13817619129247  -15.40458541067635   -2.28952892221497
H          -4.35896455779346  -13.59022887748230   -4.63344305611682
H          -4.39878404489222  -15.74212057384013   -9.00321014022736
H          -3.58936518999346  -19.85585789790434   -7.25683212300688
H          -3.24652662584063  -16.26405860700932   -2.36900436849385
H          -3.85279844558307  -19.22879358172447   -2.82932060561534
H          -2.45901292063626  -16.55431827067128    1.58363736628846
H          -2.61568228370090  -18.77624248583681    2.76380212489498
H          -2.99399928449812  -21.19709839520545    2.55493716712872
H          -3.66872156816529  -22.12644234413193   -0.27932122017566
H          -3.53643833050500  -23.19402709114957    1.21695748827028
