122
 SCF done       -183.917691493981          0.000824327046
C           7.32462784286075    6.70225904113387   -1.00105403432901
S           7.47452155047760    7.31364995040725    0.59151725506179
C           5.81418848525006    7.85385650555286    0.59012272980744
C           5.21128250056761    7.57097447759787   -0.61765106897879
C           6.08138442700886    6.90556609600632   -1.51841780734193
C           5.69716159176924    6.49892984812245   -2.91418177469771
C           6.44447300001821    7.36005384708276   -3.89506616861665
C           7.29601209562142    6.89698622980144   -4.78932030632753
C           4.17886820319700    6.61823597393710   -3.10894118100263
C           3.64460692091730    7.91928662779189   -2.52223106657781
C           3.81118436024697    7.92778802803474   -1.00382594488220
C           5.32955467427480    8.49496014230266    1.77365873900356
C           4.03782296377389    8.69176276919622    2.09154694744016
N           3.63678490567051    9.34656501682608    3.22958636074251
C           2.35289744981613    9.57433056689305    3.57666555734271
S           1.05450545639313    8.98942909907005    2.58500491551408
C          -0.09155573852611    9.69234498885041    3.68853841331268
N          -1.43957337854686    9.53704964454598    3.39669429169615
O          -2.25322667803282   10.02689353025408    4.16507552845097
O          -1.71738045628293    8.91328959518773    2.37964812528458
C           0.50010070651665   10.33356706368390    4.74432490418973
C           1.90637482536812   10.28511670956058    4.70935859178147
C           2.78952672997663   10.87258592542765    5.66893559083981
C           2.39355583803886   11.64230232605430    6.71679570023582
C           3.22208558018533   12.24739362278863    7.68674677132639
C           4.58228502081843   12.18891882454473    7.84889902281420
C           5.29770343019578   12.85688704764592    8.87922147372713
C           6.64153878862256   12.65443629513953    8.86984170293842
C           7.08777826950499   11.80663312335945    7.83085066943342
S           5.72193390400125   11.28828694099255    6.85880402081397
C           8.37054682823620   11.39132043117334    7.55869743750493
C           9.56203426716783   11.72398239485258    8.24680385990470
C          10.67338193231277   11.13323662885242    7.73979798430598
C          10.44777770103398   10.28639342911369    6.61528655411687
S           8.72815124726481   10.30159708867279    6.23433164186320
C          11.43073249846760    9.58812524267370    5.97722082037944
C          11.37319477680089    8.69646775971933    4.86107238332673
C          12.57773853350255    8.09427594103929    4.43956795954348
C          12.58232820864196    7.23236907108525    3.37371533455216
C          11.37680972433713    6.91058204887462    2.71992890788326
C          10.18298343630195    7.49365852396871    3.12116953286089
C          10.19059526836842    8.38364372647710    4.17207838461088
C          11.64634161550820    5.91799837475397    1.70737491769403
C          13.01778714446054    5.61349196084784    1.73658415304119
C          13.73763644836187    6.48365595128712    2.74659436232691
C          14.52308465491963    5.65378570454194    3.77184265735504
C          13.64689966490989    4.62261284155812    4.47385047331335
C          14.66544849371987    7.42660881592908    1.94507501941543
C          15.34652568359257    8.52787938785930    2.74677830032158
C          13.54461808308026    4.66540954548453    0.89681347058089
C          12.70376592949758    3.98831186147167   -0.00064730696345
C          11.34243521783307    4.32393172863098   -0.03475360018896
C          10.80567708381246    5.27300890965128    0.81039013505783
C          13.19680835954770    2.96451359291816   -0.89083976112500
C          14.40668210311790    2.37896660518753   -0.81031184406882
C          14.89211953410576    1.37041917377784   -1.69143507232662
S          13.92722090889609    0.77010288026325   -3.00797498448382
C          15.17608719833608   -0.34451462500989   -3.48707889596524
C          16.26791667391146   -0.25384427484946   -2.64929398038522
C          16.11572881966174    0.72751994029136   -1.64564287305969
C          17.17294661873872    1.02589584174033   -0.61406790673133
C          17.46942199708546    2.49650941097356   -0.52030716550334
C          17.64323415239415    3.15309263272141    0.61183798654143
C          18.48170158075485    0.29433049398779   -0.95192677596823
C          18.20481175475859   -1.14024636464020   -1.37816588560932
C          17.47286371591664   -1.13855907952169   -2.71664637024276
C          14.90715230060665   -1.17732458513139   -4.62847212585339
C          15.78843627426302   -1.84579742733038   -5.37013216216121
H           8.16482434417804    6.23096256359902   -1.47133878762558
H           5.99827738244589    5.45798565290292   -3.07708749062672
H           6.25450298566397    8.42218840304939   -3.82365342020212
H           7.51118565849841    5.84432361413484   -4.87768405732598
H           7.81561111008656    7.54689163553744   -5.47281262027286
H           3.68764046554304    5.77694536773363   -2.61441963346104
H           3.95212911471205    6.56171830549845   -4.17523613023396
H           2.58748142771535    8.03148727921648   -2.76891608904955
H           4.17829680187752    8.76734949380020   -2.95380927600352
H           3.11900133685014    7.20108069724875   -0.56499755473704
H           3.55654445007556    8.91414706437358   -0.60840761565502
H           6.09347288841700    8.82321080516255    2.46801251960866
H           3.22929841159652    8.33368112595407    1.47736993932670
H           4.35920783481661    9.69884160127883    3.84670156618091
H          -0.08292958295993   10.81167759080948    5.50887961482523
H           3.84382079840961   10.68858579802961    5.52972369028039
H           1.33761101315919   11.83741944409192    6.83973871813858
H           2.71005549778198   12.85271337806441    8.42456023148485
H           4.78337432725164   13.46835731248205    9.59965299595593
H           7.32361612759987   13.08421329391873    9.58144252554624
H           9.56012292470440   12.38668739842004    9.09365418839989
H          11.66481899067124   11.26888886564317    8.13599570599777
H          12.42195746951337    9.73085236391447    6.39419400709035
H          13.48581531147669    8.31318185249573    4.98245205041717
H           9.25988597460647    7.24911963601224    2.61999994086305
H           9.26170897916613    8.83709901478428    4.47577626189781
H          14.95521786578844    6.32087543333814    4.51909294601293
H          15.34363216606872    5.14609378168352    3.25989082383405
H          12.82797791587384    5.11061405573159    4.99785245562464
H          14.23309794148929    4.06024602337984    5.19735146562839
H          13.22401246300853    3.92474944984442    3.75465992168044
H          14.06900293931105    7.88849528732016    1.15381237514447
H          15.42818070416505    6.80998102710318    1.46365452994825
H          14.61301425068556    9.21607248345026    3.15773622321202
H          16.00940308196271    9.09189885609836    2.09370408572039
H          15.94265438592099    8.11832904218523    3.55813927833272
H          14.60094447349810    4.44445797065819    0.91804968873560
H          10.70094719319716    3.80843606878581   -0.73584137813536
H           9.75278355516488    5.51142128583851    0.77914349088721
H          12.51476698534013    2.64045573828966   -1.66819348322870
H          15.09220731716970    2.65761297826827   -0.02482277584534
H          16.81732070746466    0.66879699487635    0.36144511803218
H          17.57932671609084    3.00333571121898   -1.47030787204343
H          17.53956038395807    2.66985996574248    1.57068171142184
H          17.89304777349787    4.20065091699785    0.63140467752258
H          19.13608976172096    0.32068004132698   -0.07895501480030
H          18.98899595710364    0.81858859401099   -1.76545170327201
H          17.59160971003958   -1.63589825845961   -0.62242483102066
H          19.14085191408573   -1.69381250197497   -1.47115339654753
H          17.16641133727812   -2.15221237431104   -2.98393669376061
H          18.15119203491101   -0.77671044957386   -3.49606869275385
H          13.85952392300054   -1.21711039672553   -4.90212011390629
H          16.84770379342823   -1.81561703438732   -5.19569932086871
H          15.46122099707478   -2.43771168683663   -6.20730831939353
