82
 SCF done       -134.206305422570          0.000518952864
C          -1.09689765779929    0.61933317623283    0.19831172793552
S          -0.90268451119039    2.22998933687080    0.74028087418181
C           0.78024129774412    2.23083674905774    0.26097701809664
C           1.13679565428131    1.00313765982666   -0.26768956468397
C           0.05527046273234    0.09006119814406   -0.30547094723268
C           0.16408335941955   -1.31675983550404   -0.82018835187392
C           0.08841851600804   -2.30879413471033    0.34575115872920
C           1.45558784652285   -1.47969511591189   -1.62706273628672
C           2.64745231036118   -0.88747385890631   -0.88440571348968
C           2.49981384438028    0.62741152716427   -0.75574335450484
C           1.49837290034609    3.44093863610960    0.47767935925907
C           2.71964564871012    3.76880565965345   -0.00546466365226
C           3.39232082804674    4.99244856380872    0.26624530676920
S           4.88517326605556    5.31780140060089   -0.55311737815936
C           5.07185109372859    6.85714583045430    0.25277511098709
C           3.99902104974557    7.10480607478883    1.10048764526001
C           3.06859147039787    6.04793389088818    1.11684784212213
O           1.93191031139630    6.02094852090363    1.87464386009101
C           2.11557975190525    6.14445419732723    3.27667020774751
C           2.31480812538058    7.57674414355860    3.76795807255400
C           3.66553928790409    8.16737104263712    3.37371168003675
C           3.79491151262618    8.37712262377178    1.86228838103629
C           6.20137067301567    7.66907155354930    0.01333978225434
C           7.20052230781354    7.35575638556253   -0.85207336301913
C           8.35486717629959    8.13742386116179   -1.08859641200688
S           9.53910005114336    7.56565591381999   -2.23004961537200
C          10.58544545228725    8.93875651430292   -1.97030245046451
C          10.01821088540023    9.80253865521987   -1.03847132031821
C           8.76338513883508    9.35287233249285   -0.54245505102252
C           8.04691694786912   10.09859545610324    0.40523890757062
N           7.48447535723580   10.73110016645735    1.18165435111133
C          10.57609956376634   11.01381158615014   -0.60007180243886
N          10.99640839025909   12.01034895580905   -0.21563625280573
C          11.80731754978692    9.00086248026703   -2.68129679790550
C          12.76445679637621    9.95308497293699   -2.52508211426706
C          13.99301966102798   10.01047819909627   -3.21819999809389
S          15.15249306117184   11.20701500799008   -2.69864252517056
C          16.34850226494219   10.71013763967251   -3.86766233425976
C          15.82938697055581    9.67058707520542   -4.62188482069137
C          14.51482002371383    9.26391181206162   -4.27857698309917
C          14.06453610589254    8.20891212714409   -5.12098921709128
C          14.98433226548341    7.83013337907860   -6.03973927963153
C          14.86275527945311    6.77112828989701   -7.07248782031830
S          16.47650334052373    8.75025667524362   -5.93396246875019
C          17.61803485643376   11.32627995050713   -3.94587226791918
C          18.03492837291260   12.43089324070257   -3.04491499754352
C          19.27704649800092   12.80084817510491   -3.34407682370677
C          19.76295398858886   11.95085194849142   -4.48138464554679
O          20.84728672410180   12.00472636656045   -5.01647080134830
C          18.64407824807554   11.04874730377467   -4.79289016053844
H          -2.05662654191889    0.14744133714721    0.27578559282983
H          -0.69014360327686   -1.51459033780899   -1.47879213494758
H           0.88387194008900   -2.12765138337338    1.06403771324548
H           0.17661904210864   -3.32891898897911   -0.02130462843003
H          -0.86198291982370   -2.20868447880835    0.86406342892636
H           1.34683618764957   -0.96902074798666   -2.58696672120767
H           1.62539331105018   -2.53890398481108   -1.82834141242340
H           3.57113843357006   -1.11504082513767   -1.41969947489208
H           2.72177685976555   -1.33367690121306    0.10817150248117
H           2.66426771279554    1.08903247964482   -1.73569652432177
H           3.25863889640544    1.01556081494547   -0.07216215092152
H           0.97674415589422    4.17662558637201    1.07336338637988
H           3.25118345648679    3.10232383715607   -0.66647559426413
H           1.19558406725888    5.73595427031800    3.70489901822278
H           2.95939486711943    5.51789771987073    3.59583853380355
H           2.22590469289162    7.56815948849836    4.85605448990793
H           1.51209517554528    8.19919233250685    3.36694951718504
H           3.77948532936914    9.13578950658782    3.86389397502146
H           4.47234286213814    7.51919879700663    3.72484713177547
H           4.61897803587752    9.06196916904588    1.66679749309390
H           2.87725733397398    8.84899443082825    1.49650110422215
H           6.26245335858385    8.58891072172179    0.57458690029258
H           7.13415831004431    6.43283041275266   -1.41442348193863
H          11.96836660275163    8.19100378544483   -3.37652365654472
H          12.61272019715086   10.73496117098922   -1.79400509001374
H          13.09365747857058    7.75335874341216   -5.06293509597634
H          15.62806726508975    6.00895934518096   -6.92810922379288
H          15.00017976784363    7.19240485630254   -8.06787972327411
H          13.88329939337324    6.30245507889685   -7.01919467775010
H          17.38640472236921   12.82773022113046   -2.28399012778975
H          19.87705660820405   13.56491451229915   -2.88843782806121
H          18.67838668130528   10.30884571885446   -5.56871049346108
