116
 SCF done       -168.359738430321          0.000340223638
C           3.57494217666204   -2.73083644962002    6.28123974103899
C           3.61157276048218   -3.99250870873896    5.85730752223043
C           3.47086268704359   -4.46034873069791    4.50392398133899
S           4.06099492226284   -6.05105257847570    4.13723637429511
C           3.55994163158156   -5.92437990316610    2.47068882975954
C           3.76484299889558   -7.09724699654052    1.68611438078917
C           3.21874771445569   -7.42253388355162    0.49337579865553
C           3.47981467998991   -8.64845546789174   -0.18068032866114
S           4.54570416021968   -9.83796262564907    0.52022887526198
C           4.33707803527691  -10.92059884467818   -0.82239589768910
C           5.02169540314194  -12.17010832701301   -0.80125610471052
C           4.92956469605282  -13.12311936573921   -1.75372644382714
C           5.60506144308320  -14.38344439829588   -1.74626552245785
S           6.08862103867332  -15.03042411883230   -3.29226284709751
C           6.83636451744019  -16.41553307889039   -2.55749088964574
C           7.47094047695802  -17.37917724040783   -3.39288417457612
C           8.18336833831206  -18.43945313196993   -2.94914162154364
C           8.80720143682385  -19.43695322233047   -3.75424127970021
S          10.14269505476107  -20.31021949869596   -3.03958877735773
C          10.42593659695469  -21.22163293617761   -4.49093492191158
C          11.48698595471698  -22.16946120994564   -4.53006340361000
C          11.72230976222668  -23.02619657032816   -5.54689163822975
C          12.78567467876601  -23.97184121926674   -5.57364679400877
S          13.93481732598805  -24.10092060542465   -4.26378072920111
C          14.74307562469949  -25.39084496628710   -5.05695671608579
C          14.18065347287756  -25.71035361593083   -6.25621041092026
C          13.06219063377812  -24.89699412608330   -6.55897116638111
C          12.25590540100772  -25.08041917018383   -7.80640239622152
C          13.04264117036607  -25.86933915650968   -8.85024511894235
C          13.64157492348650  -27.12565855325740   -8.22642648169444
C          14.69920536276715  -26.78192120617823   -7.17191290524154
C          16.01780625027143  -26.33235668642735   -7.81075970072113
C           9.49595672294117  -20.86477727139495   -5.45604643511850
C           8.56617288456783  -19.88676306426511   -5.03782775194052
C           7.39162013737866  -19.53728617056078   -5.89870132399007
C           7.79863971227514  -18.80764745605897   -7.18243647981956
C           8.37666241103397  -19.77224532661907   -8.21564317161291
C           9.66855888272979  -20.45493265103218   -7.76255675271089
O           9.50647435823633  -21.40235960163055   -6.71852571388163
C           6.67886872420705  -16.36531948624591   -1.17922579839671
C           5.97681721327932  -15.22655212486417   -0.71702217325314
C           5.62646200985203  -14.99912009866820    0.72274711919856
C           4.91251340770515  -16.18702814360399    1.37580350363900
C           5.83503252810451  -17.36624581121420    1.66830244318896
C           6.30187848440289  -18.08426966985024    0.40491710578426
O           7.21515502403929  -17.33741024445779   -0.37781859600519
C           3.47220001052548  -10.36412932182780   -1.75356837766869
C           2.97966014244990   -9.09034858849837   -1.39310132308638
C           1.97871654949361   -8.35480038197619   -2.23100851451888
C           2.47989325688170   -8.05721755107719   -3.64757570693598
C           2.46840920766225   -9.29343193735038   -4.54264857492704
C           3.47096144955238  -10.36290887623821   -4.11185134673055
O           3.13564417522592  -11.02621751636529   -2.90466511606382
C           2.99814549407726   -4.68179699157323    2.22447994769497
C           2.91992562226219   -3.87545914757657    3.38274892787143
C           2.18700553236271   -2.57132618594895    3.38410486833670
C           1.20739277885198   -2.53670776102877    2.21587871915554
C           1.97947005320519   -2.77364778381706    0.92675879245430
C           2.57043548972849   -4.18927420202924    0.86678814067248
C           3.75919074443005   -4.18987533611702   -0.10117417366326
H           3.69626560996087   -2.49974712222796    7.32536966733363
H           3.45047825414686   -1.89346568432607    5.61991783943670
H           3.79808543949748   -4.78086441379498    6.57693422933753
H           4.40718453703445   -7.83529100426887    2.15377261515718
H           2.53189589836413   -6.75205180732484    0.00307555634840
H           5.67618848422155  -12.30977867818487    0.04793076864205
H           4.34345723237089  -12.91690011166774   -2.63779887998252
H           7.36799493490198  -17.19181783885335   -4.45223492595564
H           8.36014411913440  -18.53044380228272   -1.88729648648501
H          12.12921730152472  -22.19110541146397   -3.65821975205500
H          11.06341680204324  -23.02235477478630   -6.40189632641484
H          15.59155489234796  -25.84510997229356   -4.58428400693556
H          11.95973683806749  -24.11054311186101   -8.21210364293396
H          11.33779457069223  -25.62322644514674   -7.55557521278220
H          13.83900255002913  -25.24468871707680   -9.25783573479780
H          12.38102189984612  -26.14338606866379   -9.67449616592718
H          14.09261819142992  -27.75087046195649   -8.99959846791986
H          12.84042832542522  -27.70080453427884   -7.75566251654227
H          14.90834194318796  -27.68040726946697   -6.57864021929683
H          15.88306594478429  -25.41236666359679   -8.37386495991692
H          16.39350632971754  -27.10063767585911   -8.48332143057067
H          16.76436488691380  -26.15001855325918   -7.04158256457617
H           6.89385027084231  -20.47161826312699   -6.17929811670552
H           6.68088639179094  -18.94297246196879   -5.32756667494108
H           6.91919600259496  -18.32354498305523   -7.61247410740825
H           8.52991550877361  -18.02966988025411   -6.94894290075617
H           8.59614219388473  -19.23074105471629   -9.13840029386128
H           7.63786722122057  -20.54402126702881   -8.44296133247036
H          10.08012688375816  -21.03189013112447   -8.59688401224650
H          10.40604616097948  -19.69786718382047   -7.46449359879482
H           6.53790614774677  -14.77734110965946    1.28654930277010
H           4.96598039085493  -14.13506649721760    0.78682978576590
H           4.48077111273138  -15.84248546711648    2.31827707137822
H           4.08989610903868  -16.51322039237449    0.73391211099709
H           5.30893183790088  -18.09343272301252    2.29048790917192
H           6.71205050696455  -17.01897294027246    2.21867247583091
H           6.85349090092689  -18.98893156963553    0.67764467229069
H           5.43525674008483  -18.37305883070702   -0.20587112393988
H           1.07181312319766   -8.96394177158981   -2.30147064262094
H           1.71139479230533   -7.41784035826838   -1.74328758502474
H           1.83007402742558   -7.30082414056833   -4.09351902279936
H           3.49028569411491   -7.64315988640106   -3.59913875823943
H           2.71282825235112   -9.00284848369896   -5.56652180911434
H           1.46854302411208   -9.73305406135852   -4.54402890918327
H           3.49852483477152  -11.15847018227574   -4.86266936093139
H           4.47484381298325   -9.92476095258522   -4.02951242494052
H           2.89309585843071   -1.74046501694965    3.28686318570429
H           1.65895451689999   -2.45386733165138    4.33309395370594
H           0.70180864776597   -1.57003031456203    2.18200770851833
H           0.45022435948881   -3.31309536500080    2.34609038669325
H           2.78901280378966   -2.04218028584128    0.86918152547788
H           1.33464039387378   -2.62049373414266    0.05927556358461
H           1.79449425976871   -4.86492345574636    0.48685088021255
H           4.53392132713349   -3.52133271735279    0.26833254229188
H           3.44096774545701   -3.84081791710562   -1.08145115701057
H           4.19064882277722   -5.18049385232561   -0.20660809716030
