89
 SCF done       -166.025715680274          0.000448545072
C          -3.26561692298892    0.63266352294481    0.85714822300183
S          -4.44908546030933   -0.31808957117043    0.10886335315561
C          -5.33663969962514   -0.50000960804957    1.58730881891957
C          -4.70302710390373    0.15221896274654    2.65188287584679
C          -3.50214803300867    0.81537794869800    2.20524245621312
C          -2.68478362619454    1.56540372727035    3.09525661420688
C          -1.45193145283847    2.24575085385190    2.59046783748655
C          -3.07128788457548    1.62814950584960    4.40226595611346
C          -4.22295623481453    0.95939993960071    4.85393369954782
C          -5.03988987784652    0.22419331310621    4.03383177212739
C          -6.21858020407520   -0.47951348262713    4.61759364164517
C          -6.53467285275775   -1.26821271432539    1.37113329617715
N          -7.49114217187009   -1.40721170077784    2.28923427673138
C          -8.54994904012459   -2.12197685201518    1.95684868490935
C          -8.70032226613748   -2.71412032833671    0.71135605993155
C          -7.65684811915928   -2.50589934835557   -0.20121982678743
N          -6.59396317069692   -1.78952957734048    0.14294411038218
C          -7.68980706633540   -3.05473368198184   -1.54297173800363
C          -6.68712467181803   -2.85150208890024   -2.41928163308179
C          -6.65818841671100   -3.36598750364215   -3.74571321770109
O          -7.67980175405652   -4.11752884885006   -4.23427836473272
C          -5.69926257294094   -3.24475782813609   -4.73401945403041
C          -4.39006061882549   -2.66621243681260   -5.05854415560756
O          -3.63370363372304   -1.99331349253196   -4.41043876633086
N          -4.16993849434129   -3.07958951993753   -6.37269160671916
C          -5.18156290305205   -3.85667690314502   -6.93534159325027
O          -5.17174913051202   -4.30641713403573   -8.05212798241851
C          -6.17170042073676   -3.95706934686010   -5.86186669834505
C          -7.40540810001442   -4.48740198017655   -5.51850688122088
C          -8.31460935370511   -5.27851969925722   -6.25213180391671
C          -9.49499125549611   -5.71151674465001   -5.71789555379133
C         -10.44537410839986   -6.49805400675573   -6.37860705786078
C         -11.61470448910710   -6.90474240759491   -5.77499873679647
C         -12.65572920245912   -7.69342990503391   -6.31739611084288
C         -13.68924402129055   -7.92426372615238   -5.45538750207926
C         -13.51343555062278   -7.32906946400802   -4.18861435351151
S         -12.00190545241741   -6.46703548754749   -4.12089247293862
C         -14.34778547674488   -7.35695064275951   -3.08007235412517
C         -15.59931218605674   -7.97990668891172   -2.91569137675928
C         -16.14108144307225   -7.79817281257793   -1.67287991384601
C         -15.34210260045455   -7.02632223626193   -0.80272093087928
S         -13.87539423428022   -6.53230572020470   -1.61432381518191
C         -15.61091549896609   -6.67397342719383    0.50936401518703
C         -14.72628874956733   -5.90717146069337    1.25640526548999
C         -14.90545827214974   -5.50818341990927    2.56687104435705
C         -13.99562821574836   -4.71286682957164    3.34450854452804
C         -12.78225439712853   -4.19900519066044    2.94194986842584
C         -11.93838061451178   -3.41651388348787    3.75264579493157
N         -11.18936203220223   -2.77053862791183    4.33837706170435
C         -12.18634869032662   -4.35810196253448    1.67734023300947
N         -11.60614390813755   -4.42073922745582    0.68557690587417
C         -14.58579731744886   -4.52892489767624    4.66877243377360
C         -15.83413507007372   -5.19674811540193    4.70504374357432
C         -16.08138693338660   -5.83576214730224    3.39350700448131
O         -17.05822893510751   -6.48950569196496    3.08314818369619
C         -16.63711740942466   -5.20473936510590    5.81774748776731
C         -16.18751430373814   -4.51874529480259    6.95226145617302
C         -14.93889078101874   -3.85709535658273    6.90747102114063
C         -14.12507415309715   -3.85056551489574    5.78012660458143
S         -14.57708370233372   -3.07163268710895    8.41511369652609
C         -16.08970391430826   -3.63464468653361    9.07500003226900
C         -16.82779683376515   -4.37354155447088    8.21345520951733
Br        -16.55178277842311   -3.19228112677784   10.83848958724748
H          -2.44601202721891    1.01627183910952    0.28320706869719
H          -1.70266821337317    2.95890148621708    1.80606595644547
H          -0.75841241434063    1.51736411019042    2.17163913729421
H          -0.95314194845989    2.77673028781632    3.39711403992932
H          -2.48257624282277    2.18837234840902    5.11430991343585
H          -4.46647871964399    1.02638652993556    5.90477235698283
H          -6.24263341296365   -0.34320980762756    5.69611167663279
H          -6.17650884755906   -1.54300260478067    4.39528980676511
H          -7.14329974363362   -0.10366492359321    4.18849809543572
H          -9.30482327755349   -2.21785438463276    2.72761134049800
H          -9.57097214377816   -3.29689738707620    0.45917379654141
H          -8.55938028824121   -3.63855812264490   -1.80993621179265
H          -5.83047007632200   -2.26256166615176   -2.12352686853988
H          -3.33280892420455   -2.83391267620754   -6.88168691757175
H          -8.02346893704703   -5.52488579797145   -7.26219240127484
H          -9.71792293221892   -5.42548698851019   -4.69727078478139
H         -10.26190526530477   -6.80222082667393   -7.39990994672349
H         -12.61040601206159   -8.06609444626033   -7.32541560914911
H         -14.56308891652270   -8.50246620296988   -5.69647531395554
H         -16.06776397947305   -8.54053924805924   -3.70478584661094
H         -17.08901618714275   -8.19638329947422   -1.35755586989438
H         -16.53483602883920   -7.00892606099967    0.95728739862871
H         -13.81539925557597   -5.59869596495647    0.75697352319923
H         -17.58355989323907   -5.72233279850472    5.81513020755121
H         -13.18145795902748   -3.33114349643203    5.79630407721959
H         -17.78488456477156   -4.79870371452949    8.45476440504346
