88
 SCF done       -173.122092548474          0.000859030140
C          -2.79969606977051   -9.06546529587231   -4.80237443275146
S          -2.58453968270100   -9.23585461943504   -3.11872172376890
C          -0.92519266311951   -9.70661559738122   -3.31141458708769
C          -0.57151173417196   -9.76910406790594   -4.64937671846032
C          -1.66286264855782   -9.38640489324200   -5.50492220976374
C          -1.43276759568953   -9.33546797258332   -6.90845896924423
C          -2.55900206041024   -8.89718120449296   -7.79420799346972
F          -2.98335469167639   -7.65165656271734   -7.49589114606639
F          -2.23731987145372   -8.88186352941658   -9.09324456305717
F          -3.64330793874905   -9.68850249598571   -7.68029402288007
C          -0.20624585486005   -9.65539948390514   -7.41280172919937
C           0.85273548558086  -10.03976976298776   -6.55866639796908
C           0.68573093445964  -10.09488757804792   -5.20848057572328
N          -0.10282852702556   -9.94816039720602   -2.22120973531045
C          -0.09571548480841   -9.15993121173844   -1.10576748316685
S           0.23537669061142   -9.85705306723052    0.44356614003408
C           0.03033053512024   -8.29510784428586    1.17669489359021
N           0.23058830133170   -8.20642125851778    2.55719264750241
O           0.09076811670793   -7.11971508087658    3.08446856166643
O           0.53383499266203   -9.24052948499194    3.13048019440294
C          -0.28437058519259   -7.31182647620605    0.27842157884738
C          -0.34558355196688   -7.78366837115054   -1.04648629328512
C          -0.57479611214742   -6.98469456704130   -2.22015885247530
C          -1.15066101491713   -5.76976262850414   -2.26862682309299
C          -1.42459786515986   -5.11040903522512   -3.50244444915744
C          -1.97390096198702   -3.84734707085550   -3.66582420853460
C          -2.27881359854477   -3.04389525971466   -2.55455133492923
N          -2.51319215481035   -2.43922670242061   -1.60932312716545
C          -2.18592215965255   -3.51203463370814   -5.03033416472996
C          -1.79819067465476   -4.55251022366848   -5.86817414924927
S          -1.15914883266862   -5.91610055625339   -5.03860397963708
S          -2.04311234903766   -4.27555833621055   -7.55844389467255
C          -2.67822681079887   -2.71354347515663   -7.14831933862860
C          -2.69726251449913   -2.41824481808719   -5.78927042118833
C          -3.20764542415261   -1.11798505876562   -5.55153551901575
C          -3.34249592359069   -0.49792093198704   -4.30470921424834
N          -3.46652646284605    0.05817024017466   -3.30752443029219
C          -3.57502519689599   -0.45814559694178   -6.73210665991930
S          -3.28878229486844   -1.45175003683148   -8.15064152258979
C          -4.09642250451333    0.84162553319178   -6.80211072129989
C          -4.50587752815083    1.51563568381046   -7.92562997357666
C          -5.01088208662087    2.84023323912064   -7.95927674448994
C          -5.36160661826546    3.27622137341343   -9.20089894056878
C          -5.16164644527477    2.32084927633331  -10.21953980656263
S          -4.49292470710424    0.84592608818407   -9.54320778862097
C          -5.43398377431978    2.42827872127907  -11.56920137851204
C          -5.95061753799204    3.53856040724960  -12.27458987005917
C          -6.11444986889429    3.31454156411399  -13.60675135715469
C          -5.74563631268067    2.01444620823727  -14.04087705881397
S          -5.16396718862036    1.09190620122277  -12.66009452982459
C          -5.83882116763675    1.55822823217837  -15.32947912224341
C          -5.52672525473692    0.28435126573830  -15.85093189143705
C          -5.66951820439342   -0.07031509547538  -17.19563609455758
C          -5.28136252881510   -1.42335954495485  -17.35802574946099
C          -5.24127313476383   -2.24423188753223  -18.46293903702785
C          -4.80553336131652   -3.56668959681125  -18.27845973143647
C          -4.65950060241306   -4.62060203170503  -19.16912231938693
C          -4.18059679323316   -5.76806092912922  -18.46127665561497
C          -4.03080865235105   -5.41866962153723  -17.13169639188331
C          -4.40989513109221   -4.04969499211141  -16.96708946991394
C          -4.44530125192568   -3.23800544041788  -15.86619198814696
C          -4.88427133650999   -1.90805332053717  -16.04792198605825
C          -5.03455659507102   -0.87092831252758  -15.14947789872184
C          -3.89830370070353   -7.07108928014750  -19.01368819127969
C          -4.03661349652899   -7.41794793160286  -20.29036304328535
H          -3.74555922151128   -8.73508571253959   -5.18049866417242
H          -0.03286073159955   -9.61068661101590   -8.47664924510753
H           1.80654495453429  -10.28181184887324   -6.99978121367825
H           1.49841437288161  -10.37243206512686   -4.55481179486284
H           0.28809206575073  -10.87604767700679   -2.12185384744972
H          -0.42707490667021   -6.28746032917219    0.56983763656931
H          -0.25991798354018   -7.42830596342886   -3.15559562702654
H          -1.47342953425953   -5.25521348716082   -1.37454776903969
H          -4.18250654709957    1.36138455993926   -5.85614063166436
H          -5.09620199177658    3.42368175939500   -7.05990168065919
H          -5.76324876162794    4.25193278000480   -9.40798817428755
H          -6.18330288286929    4.46529186771401  -11.78172632159028
H          -6.49569264626293    4.04325530392201  -14.30075059250925
H          -6.21398769583541    2.27523530885489  -16.05076738707248
H          -6.01885287164171    0.57572166771645  -17.98012744290174
H          -5.53531504030173   -1.89222106241322  -19.44177615568423
H          -4.87189019304394   -4.58434372813643  -20.22188646306368
H          -3.68785437744551   -6.06190806031096  -16.34195963097340
H          -4.15339883570415   -3.58748592298758  -14.88601752785320
H          -4.82214497644361   -0.91933189316526  -14.09813379467934
H          -3.54678216885122   -7.80212411837231  -18.29605691208788
H          -4.38221300325029   -6.72717251126605  -21.04017639287343
H          -3.80672698797972   -8.41251311690168  -20.63112597563529
