80
 SCF done       -133.385881699021          0.000331542806
C           2.56432633647188    0.94365138624371    3.68560138862517
S           3.39278482620825   -0.30267074268456    4.54815723180425
C           3.08125213034335   -1.43656087567164    3.26735196066638
O           3.52108748629301   -2.70841778754305    3.34717132273464
C           2.37384788557080   -0.87236371934575    2.23175166106924
C           2.09219677113205    0.50172533722575    2.50221632160020
C           1.94738956074861   -1.52021463979212    1.01487879737674
C           2.16808936314572   -2.79923643303476    0.68423986824539
C           1.72106724316541   -3.41832169790139   -0.55508696294737
C           2.45371420430864   -4.47518199522009   -1.11289425128850
O           3.59125312008244   -4.96968393779452   -0.49760184503515
C           4.72831173702011   -4.13384784254281   -0.54366159036102
C           1.99217110168099   -5.10789280965625   -2.26900047959335
C           0.81407729095459   -4.68757803574552   -2.86370814645130
C           0.08329103279294   -3.62938524784005   -2.32649125698605
C           0.54410839689919   -3.00179522798747   -1.18026987213981
O          -1.06256965069831   -3.30273584563188   -2.99059795018594
C          -1.85172372868321   -2.25239912606083   -2.49021870083770
C           2.76497833763881   -6.19188329295007   -2.92250881505996
C           2.33827469483386   -7.52434420473112   -2.97312912615186
O           1.31030939937274   -8.07391153757147   -2.27106032908838
C           0.84112679584509   -7.46090299857898   -1.09513172174823
C           3.02517930058462   -8.41468306698738   -3.81385316158147
C           4.17333534737857   -8.02147814536920   -4.48893213881109
C           4.64201781833240   -6.72121693017107   -4.37119641989384
C           3.90615808979333   -5.81577902808677   -3.61604423008446
O           5.76574688266795   -6.22850269357013   -4.97738617770991
C           6.53127400282504   -7.10487954036290   -5.76470975696892
C           2.49439920261107   -9.77760000681133   -4.01865489157117
C           1.19424521951176   -9.94863943310103   -4.49436319650471
O           0.40581429465469   -8.85402738930390   -4.79342625819959
C           0.74798881818421   -8.18941155483220   -5.98942631926888
C           0.68956631746170  -11.24807330384710   -4.68237932101481
C           1.51544183353003  -12.33430889817951   -4.41334767556187
C           2.81943062077812  -12.16458905455175   -3.96360266565543
C           3.30394223259515  -10.87915544200810   -3.76331836420260
O           3.52762980806328  -13.31040928186404   -3.74925144166950
C           4.84880914832516  -13.20227687086814   -3.28088654825986
C          -0.65996638376136  -11.47091852460974   -5.15996370613865
S          -1.07490736036197  -13.00143629691659   -5.91094856094241
C          -2.70726283197023  -12.47346124153524   -6.16278996374531
O          -3.62356599459815  -13.26512481925524   -6.75976370118771
C          -2.92844450207689  -11.20169684083078   -5.69105094157304
C          -1.74674880560517  -10.65370730324772   -5.12308904119385
C          -4.21902474182734  -10.55111858379956   -5.78950641427750
C          -4.49394434155526   -9.32090066300718   -5.37235098133502
H           2.48992761196644    1.91775448011485    4.12470264346842
H           3.98686093456262   -2.85680038812935    4.17813910616225
H           1.54757274649544    1.12512352961309    1.81530102688124
H           1.42413645784147   -0.86805501784024    0.32742709946903
H           2.72154850471104   -3.44081534269706    1.35397192743166
H           5.47847029014890   -4.61379507881901    0.08270921950153
H           4.51560482207009   -3.13243886033028   -0.15678063460044
H           5.11340858719749   -4.04911882657400   -1.56557541645461
H           0.44753168743760   -5.18033914920008   -3.75047592941356
H          -0.01963531578265   -2.20543214356701   -0.72228832459189
H          -2.69704360808772   -2.16886680858281   -3.17158350651149
H          -1.30198691972873   -1.30538420392630   -2.47946721441889
H          -2.22065363044186   -2.47004870467172   -1.48236273265871
H           1.65972637819697   -7.04926217271686   -0.49968931507344
H           0.34698502324831   -8.25558021647918   -0.53434831382406
H           0.11619494801341   -6.67023426483159   -1.30833680878766
H           4.66629203740174   -8.74606831887129   -5.11850882910628
H           4.22736563059961   -4.78610085577234   -3.59748095535289
H           7.37385458732210   -6.51755792965541   -6.12678496049985
H           5.96112886888982   -7.48202849531670   -6.62060979946622
H           6.90636837685498   -7.95067273865471   -5.17865898785373
H           0.64630796878640   -8.85795953933162   -6.85279728056924
H           1.76829545058159   -7.79335891195250   -5.95953476123566
H           0.04407224263225   -7.36465895123720   -6.08889659904605
H           1.14970413649374  -13.34051698229857   -4.55141016794033
H           4.30074525510405  -10.70331407313721   -3.39083538114151
H           5.20899679571222  -14.22472656260927   -3.17706690809506
H           4.89223696106662  -12.70316587881943   -2.30746341200109
H           5.48599077194253  -12.66630641728006   -3.99237397604785
H          -3.23037179499206  -14.11042020818747   -7.00280682122432
H          -1.70390589553654   -9.67667386643129   -4.68217745595177
H          -4.98819970973772  -11.15695150961267   -6.24989764828128
H          -3.75365927394251   -8.69029654402679   -4.91114610077451
H          -5.47927923755188   -8.90136286014656   -5.47991840876979
