78
 SCF done       -132.629052831685          0.000605457323
C          -3.70143704688382   -2.15013276493473    3.07376862454495
S          -3.24483608912024   -1.63344023027242    4.65971819547688
C          -1.83764669962624   -0.84574885756416    4.02108519786972
O          -0.96675255811453   -0.18865254662845    4.80957213126803
C          -1.73210407899454   -0.98069569903020    2.65333434906264
C          -2.82503439438931   -1.73998025996198    2.13456760021244
C          -0.64384470631034   -0.40874037277038    1.91247119631336
C          -0.46022725199686   -0.51775827693848    0.58234492291623
C           0.63390517912981    0.06004342448898   -0.12526743796519
S           1.78978478810780    1.05957630184041    0.70318115303690
C           2.64725424737997    1.33076085941074   -0.76010707437274
C           2.09143649108311    0.71842470501122   -1.83719907364459
C           2.72038410216951    0.78899571235663   -3.19051407304026
C           0.91723459509818   -0.02466322805376   -1.48784588439524
C           0.12184144325868   -0.83186127983266   -2.37340863156155
C          -0.02447117477464   -0.67986104022520   -3.70623175326347
C          -0.79730256402705   -1.53257473578354   -4.56092351318194
C          -1.51424444040297   -2.61722339299158   -4.19725570173787
C          -2.21963506245138   -3.43249883289284   -5.13977180430198
C          -2.96401436772630   -4.50852673347612   -4.83857456343014
C          -3.20021739646798   -4.98501633990223   -3.43409263919906
C          -3.64130744954778   -5.30809048376944   -5.92205396174687
N          -5.07478509299247   -5.13680332112044   -5.87890347412548
C          -5.84319463684960   -4.75942956187404   -6.91395868247356
C          -7.18584983525283   -4.54912176285504   -6.83615343178940
C          -7.97819696111929   -4.21430313542294   -7.94675263276390
C          -9.33265467743827   -4.01226067437974   -7.90776357284153
C         -10.18753367060107   -3.71207317743894   -8.99445241632376
C         -11.50019244165738   -3.57937559352514   -8.65928684040584
C         -11.76363244665191   -3.75732755774878   -7.28132130847936
S         -10.28223054967100   -4.10965293993257   -6.42308209577745
C         -12.98135944141726   -3.67257649000422   -6.63701381652907
C         -14.24878816033750   -3.42246654039387   -7.20581746006850
C         -15.26538334465634   -3.39003623474825   -6.30189000584751
C         -14.86109043461324   -3.60536656756231   -4.95930220626396
S         -13.12867208840210   -3.87024936641313   -4.89609137703841
C         -15.68324394598986   -3.59737711320926   -3.86414067539129
C         -15.31556455983832   -3.77798548159917   -2.51986641085806
S         -13.68462345977498   -4.07915261179023   -1.94284022914966
C         -14.14632976656019   -4.14347110457572   -0.28344954330150
C         -15.49977699777838   -3.94415276086692   -0.15276153674466
C         -16.14412951861919   -3.74221649533462   -1.41137913560292
O         -17.47196970945994   -3.54619090534622   -1.25092491558068
C         -17.68087946140668   -3.61984787531119    0.09112335914534
N         -18.99871065594638   -3.44745733143299    0.56126015252009
O         -19.15975826623655   -3.51771421824312    1.76821607863327
O         -19.87754719858987   -3.24464067450351   -0.25160973217659
C         -16.53919359898412   -3.85730672313797    0.81224003143960
H          -4.59777653995097   -2.72488645495711    2.95669073734218
H          -1.24593259974730   -0.21833043928864    5.73143316163297
H          -2.94417663254296   -1.96215401339648    1.09025491008810
H           0.06983813033180    0.14769818716909    2.50543665786633
H          -1.17477900180197   -1.06780143609435   -0.01234325977643
H           3.53561397414624    1.93130491296095   -0.73840306264058
H           3.75450803382076    1.11427269545755   -3.09893004313953
H           2.19881402955802    1.50568755960952   -3.82481939635976
H           2.69790221169218   -0.18553487080935   -3.67407081452886
H          -0.41554382637963   -1.63701484564648   -1.89123989668191
H           0.45200320508384    0.15174970980992   -4.20125875578359
H          -0.78724914969071   -1.26511639472673   -5.61126676233700
H          -1.56553297252808   -2.90894446456112   -3.15944263162690
H          -2.11467021238723   -3.14689018310280   -6.17952362543389
H          -3.77157844101402   -4.25150630931678   -2.86547701289782
H          -2.25519790752812   -5.14129069384939   -2.91652931377156
H          -3.74531122828711   -5.92641602014795   -3.42898171670581
H          -3.40096363993983   -6.37382430365597   -5.78845142722570
H          -3.28794372994129   -4.99877671837800   -6.90741414553678
H          -5.51631901082425   -5.22828753499589   -4.97620547093393
H          -5.32819904230520   -4.64921523901702   -7.85897085576473
H          -7.68519850826551   -4.65688903273685   -5.88255164766417
H          -7.49186153595359   -4.11942008675502   -8.90927554830225
H          -9.80242765503338   -3.60754708532133   -9.99402726113328
H         -12.28398664164786   -3.35445827031491   -9.36001192320726
H         -14.37705695239530   -3.27585733808058   -8.26339418726797
H         -16.29721711539328   -3.21351702680305   -6.54901760631384
H         -16.73796685659529   -3.42294455276996   -4.03072299226310
H         -13.40814632091144   -4.31862630655193    0.47007579840274
H         -16.47769870815105   -3.95093315292847    1.87646271079886
