82
 SCF done       -161.289098952548          0.000598750828
C          16.70414648828206   -4.60550977806168    1.82582856775570
C          17.39051646185211   -5.57334547285981    2.48635435396550
O          18.39862257712153   -5.04242290579112    3.20089499622467
C          18.38040620998036   -3.72770778743006    2.99280087994578
C          17.34787935793079   -3.37655961279263    2.15825458753680
C          17.08404220013903   -1.99883768076254    1.72037053121058
O          17.96589432687890   -1.15640686471673    1.71542766218185
C          15.73158179821126   -1.64583567900393    1.30091183246779
C          15.37803319890178   -0.45452430457436    0.71400581361683
C          14.01085316918818   -0.32104164389957    0.44879374020093
C          13.29540261242594   -1.42223432072388    0.85379483933956
S          14.32386152383608   -2.63704971796514    1.55417173655694
N          11.95654450250333   -1.70200650435124    0.78512019183641
C          10.96993648281717   -1.06417540573120    0.10279958920668
S          11.25299904765028    0.30731188537345   -0.90968430167553
C           9.57557182621560    0.30255278547954   -1.36528362695152
N           9.15407768508070    1.29886968245818   -2.24522794492341
O           7.98096392363868    1.31512571053011   -2.57228889437273
O          10.00657169940388    2.08887227448662   -2.62278371629857
C           8.85376976587120   -0.69563864971865   -0.77015648637250
C           9.63066010921280   -1.49443882868010    0.09160202038399
C           9.13331403579739   -2.58278007160408    0.88005946818025
C           7.94828313755277   -3.21070193358022    0.66719147047118
C           7.45285402870869   -4.24634801074902    1.48213827616865
C           6.30621441219081   -4.94867495666655    1.21848708870665
C           5.73306506713988   -5.97882108456478    2.00718622278487
C           4.59883452752857   -6.51909988657795    1.48576260115200
C           4.21242121204867   -5.95807992235595    0.24631408941384
S           5.32982061817831   -4.69373943211931   -0.22103220344654
C           3.14817886634524   -6.31847406104043   -0.55350494073146
C           2.17535984944516   -7.31480569970060   -0.30296637159552
C           1.26237601720989   -7.46690365160291   -1.29838451669414
C           1.46281677782179   -6.59820006509107   -2.40613001726306
S           2.85589472171831   -5.56369411724986   -2.10753549362297
C           0.76795114026625   -6.50129224997568   -3.57564272709077
N          -0.31953970945561   -7.26247639537824   -3.87254599987266
C          -1.00149149022700   -7.26103516373523   -5.04258518867269
S          -0.48291675175380   -6.28002030564450   -6.37621654526321
C          -1.79805318195314   -6.90837157609415   -7.32283150304993
N          -1.92107877873472   -6.43087833134440   -8.62575915414259
O          -2.83693512173177   -6.85426048942813   -9.30918589055437
O          -1.08769295399032   -5.61094678624904   -8.98605061989800
C          -2.57658097730270   -7.81036227913656   -6.64738563490901
C          -2.14262053412266   -8.02930093939196   -5.32767091579603
C          -2.77903665202175   -8.90023114165925   -4.37297250905905
C          -3.82440720693260   -9.69825571203161   -4.64487331007264
C          -4.46770892682937  -10.55741152440968   -3.68854195083096
C          -4.20267872901907  -10.75610229541972   -2.35669816022860
O          -5.04645745329319  -11.65541627534672   -1.82445780052569
C          -5.88562859858395  -12.04009106052630   -2.79140222572966
C          -5.59816204021774  -11.40540455576618   -3.96873511336452
C          -6.24233442509517  -11.58232337291183   -5.28186423156662
O          -5.62199201979630  -11.48999228913518   -6.32564014280936
C          -7.67105838652517  -11.87147105186109   -5.26396175327706
C          -8.61364898051065  -11.67470699017833   -4.28343733537267
C          -9.90834000842359  -12.02331259308404   -4.69766825022461
C          -9.93790542954959  -12.47677644642315   -5.98416231698491
S          -8.39744445020212  -12.47186431024317   -6.72177859124360
H          15.87598782666231   -4.75175303653501    1.16440557628361
H          17.26542812622113   -6.63719284431324    2.52543641832826
H          19.11367184737609   -3.11980442845949    3.48442745310083
H          16.11285482168168    0.29623802391305    0.48587249694818
H          13.58101075127216    0.55387720815356    0.00031438088551
H          11.67263053350384   -2.55979416576918    1.24256721698021
H           7.80038261550665   -0.82033707279973   -0.93951152270201
H           9.74404934054106   -2.91689719389289    1.71012675295567
H           7.33902933615015   -2.92905604843350   -0.18053539271589
H           8.00574381340640   -4.51065181257946    2.37423307915441
H           6.18126473017758   -6.28369811377012    2.93649066101181
H           4.03616278911671   -7.30842258863644    1.95114338363169
H           2.17840381295014   -7.89196154850224    0.60417357679688
H           0.46209087357491   -8.18607676608413   -1.26432084401788
H           1.07200738884336   -5.79530706041339   -4.33295515161142
H          -0.64185884494195   -7.90744673314936   -3.16205193197736
H          -3.42595475350850   -8.28277001940394   -7.10479149740701
H          -2.38272730286050   -8.89284909922611   -3.36540243516586
H          -4.23263067521084   -9.74739228273601   -5.64224181460160
H          -3.46695636519504  -10.33848854298610   -1.69898565120946
H          -6.60759620888572  -12.79403181028007   -2.54645838568823
H          -8.38711751188440  -11.26740321998254   -3.31504454937369
H         -10.78002834356481  -11.94110364783972   -4.07346696455188
H         -10.79075517348681  -12.81177734884354   -6.54112902985121
