83
 SCF done       -156.447833463966          0.000813673732
C          -6.22744241959896   12.36673008878066  -10.26748286673308
S          -6.90431492830969   11.74901352110811  -11.76226651766981
C          -6.22036774462269   10.22844973345966  -11.35027888807455
C          -5.54759719756893   10.31793738586375  -10.13134588432672
N          -5.56884726344675   11.52426763939968   -9.54981340952489
C          -4.94451365862790    9.00232971329762   -9.75489451056439
C          -5.36105420939206    8.15208088369724  -10.92001120541165
C          -6.10737689228251    8.90513664883542  -11.83357296317573
S          -6.61473774788992    7.98681345823188  -13.18925831065793
C          -5.81801247243126    6.55900050311894  -12.53315633669558
C          -5.19911508813774    6.83464442583025  -11.31569015197417
C          -5.84116608645219    5.32006730473208  -13.19400661446197
C          -6.47661963480560    5.08707609875773  -14.38666877580977
C          -6.55438549546732    3.88035071810327  -15.08796923237779
C          -6.02206058688700    2.63996502870927  -14.78373703861734
C          -6.19983338353073    1.47904651519189  -15.56644335205289
C          -5.59559729358366    0.35649386110180  -15.06903942464770
C          -4.90232056611105    0.57398583482377  -13.86827148354512
S          -5.03843950205103    2.24709309642661  -13.38700072265647
C          -4.19730475175870   -0.34522428116524  -13.09680164600489
C          -4.04331665236396   -1.72316784592225  -13.31337510413080
C          -3.31143245182560   -2.35361050328916  -12.34174200151465
C          -2.85165999342773   -1.50035328313989  -11.32308101170419
S          -3.37123604141903    0.14014564453260  -11.63402454067853
C          -2.11368749611506   -1.87629070027627  -10.21298558113494
C          -1.63531089998402   -1.05327235089272   -9.20846152748165
S          -1.79253320078646    0.69714165655533   -9.13609394360021
C          -0.92420738148341    0.86452710205723   -7.59655343973306
C          -0.53719567033939   -0.43184137033917   -7.16209583721696
C          -0.93340127496916   -1.44636960098429   -8.06344451165497
O          -0.55255516709609   -2.66112752152082   -7.64208108663295
C           0.09415606640836   -2.44357403595403   -6.46474819264717
N           0.60619947215543   -3.55109611355155   -5.77076571976100
O           1.16644685793900   -3.32263396283525   -4.70926327268698
O           0.46092282352332   -4.65477719903667   -6.26254682646952
C           0.13653167974641   -1.10948182299312   -6.12456849027875
C          -0.77070432281202    2.14792280850632   -7.12531736232423
C          -0.20454718593910    2.63699671691815   -5.94801590374137
C          -0.08712546115400    3.99694545301414   -5.62565547323199
C           0.48427309149975    4.24341068711221   -4.39876625583436
C           0.83173012927191    3.08182263578264   -3.70424364172849
S           0.42816359885277    1.66934430228799   -4.64534805740082
C           1.40958345343381    2.93920198424161   -2.44022616557438
C           1.81128656367074    3.93034237798391   -1.53556060182206
C           2.33372707524033    3.42846750363295   -0.37071844752128
C           2.36129458292500    2.02260585095256   -0.30873678600791
S           1.70940165448241    1.34992920041273   -1.78591194358987
C           2.81693635759017    1.25573286462359    0.74989136549980
C           2.83454926633503   -0.13097972219887    0.84798833959483
S           2.26177374242387   -1.20388825362914   -0.43097179896153
C           2.62691609311900   -2.57380976955208    0.52537110187157
C           3.16821734094597   -2.22162038023718    1.77352221124148
C           3.29021108017422   -0.86613387951198    1.96041240242486
C           3.43061104490630   -3.48981750849054    2.50203421815421
O           3.89160924579671   -3.63664272636076    3.60878932337027
C           2.99065022610193   -4.56468636372563    1.55222731005025
C           2.52427952927257   -3.98068979037175    0.39895465862214
C           3.08590710653631   -5.94581981475584    1.91557612132625
C           2.72148689980365   -6.97940766081917    1.15197291755279
H          -6.37354003832606   13.39234957960273   -9.99672237567526
H          -5.34206078294997    8.62980064777220   -8.80901414818715
H          -3.85935359443891    9.06626285920064   -9.65655130509938
H          -4.66227450269427    6.08331818264982  -10.76541730902916
H          -5.31611211956280    4.52210577849685  -12.69021566857587
H          -6.98759139926144    5.92768777120213  -14.84130665380757
H          -7.12302047997369    3.90477224239274  -16.00964563592165
H          -6.77431407245341    1.50088989999859  -16.47587503138393
H          -5.63547656554350   -0.60893836503504  -15.54033428564251
H          -4.47391948273011   -2.22199623139495  -14.16266423773219
H          -3.09391499602030   -3.40695891908481  -12.33390234275648
H          -1.88645355704267   -2.92904569228026  -10.10482039365730
H           0.60164904796077   -0.72914655543002   -5.24097950647230
H          -1.16649156950851    2.91752128659895   -7.77829393819403
H          -0.42075077084134    4.76691301782581   -6.29875158112353
H           0.64999000340834    5.22665609696128   -3.99709459155126
H           1.71196848418067    4.97901742451148   -1.75066916384534
H           2.69410432173304    4.03515073936112    0.44121480163219
H           3.19681773321777    1.79866576637260    1.60626128831517
H           3.67938954363463   -0.39181631685829    2.84317399447977
H           2.14159639218131   -4.48709793389112   -0.46795594144145
H           3.49274854521681   -6.11652319990365    2.90470141324559
H           2.31466011422263   -6.84409658689100    0.16449152552556
H           2.82162488186179   -7.99358427316212    1.49657398017120
