77
 SCF done       -151.558141255649          0.000497066032
C          -6.02199008289492   11.31359219164297   -5.91991090430691
S          -5.25727308111604    9.73690189843533   -5.85380605213394
C          -6.26785077421396    9.28032182414264   -7.16526445091290
C          -7.08680727013649   10.34683108426753   -7.53562346377433
N          -6.92694772701383   11.46935454763333   -6.82239924906188
C          -7.97646099929020    9.96794547517581   -8.67645623141649
C          -7.55700952216842    8.54466481244016   -8.90635941836403
C          -6.55295886320268    8.17726372862569   -8.00230835477093
S          -6.03489357892565    6.55954250754493   -8.22088001126852
C          -7.17879084977736    6.35562102296851   -9.54436134347196
C          -7.90730433348657    7.52091204920120   -9.77162651572697
C          -7.23008171386116    5.10722607997458  -10.19104368501080
C          -8.07758232195252    4.78819368848458  -11.22099758901501
C          -8.16574114399807    3.56185858391120  -11.88992805646701
C          -7.44088736924571    2.39740858275896  -11.71547159264823
C          -7.63990883697659    1.21326647995601  -12.45990066585106
C          -6.80919183502550    0.18059126031473  -12.12342891723343
C          -5.90553079178910    0.49567969956208  -11.09502997057463
S          -6.14369811651175    2.14196463611193  -10.56466439201298
C          -4.93258068420302   -0.31254563543689  -10.51782765266813
C          -4.62370684035804   -1.65094128666452  -10.81173797173066
C          -3.60633614790726   -2.15934830237573  -10.04995196676276
C          -3.06696223215287   -1.24544320920955   -9.12483754971208
S          -3.89182358859147    0.29096635120302   -9.24849104012889
C          -2.04052337422439   -1.49492627292094   -8.23134227778619
C          -1.49316700034641   -0.60338645212157   -7.32238297559578
S          -1.96309641746338    1.07494466227462   -7.11093132214238
C          -0.79572585307632    1.40174481378988   -5.81862747250277
C          -0.06513973970621    0.20834372836980   -5.56721160056480
C          -0.47050986650307   -0.85997998293804   -6.40249768524715
O           0.21217855624016   -1.98532288057260   -6.14314566152689
C           1.06637416411360   -1.65808919405717   -5.13850307939365
N           1.89630941421448   -2.65565068168641   -4.59851917791304
O           2.61331704219652   -2.31940367794273   -3.66692777057065
O           1.83879624747764   -3.77364452540883   -5.06679832833892
C           0.94671339234795   -0.34463090893894   -4.74979793379917
C          -0.80179253540610    2.69115957623820   -5.32080806306464
C          -0.01489761860838    3.27079958782942   -4.33251951538368
C          -0.02627428132489    4.61858540637327   -3.92685581405715
C           0.90137290212229    4.93164155012312   -2.96189635006699
C           1.68182880287798    3.83722308123950   -2.56527319106753
S           1.18471143843640    2.40314509984464   -3.42513436583677
C           2.77159992472969    3.70028345591849   -1.71100735448106
C           3.54208413554616    4.62587769715743   -0.98788692709653
C           4.65178597955704    4.07798203119849   -0.40226604833077
C           4.82365725284626    2.69475155491367   -0.65682997486833
S           3.45308636097248    2.09795700349013   -1.55906299335750
C           5.85852296577043    1.87738260618548   -0.27148200803836
C           6.09368023130722    0.55891522466818   -0.72106629802404
S           7.03199281532026   -0.51787362092254    0.30473264217889
C           6.93311306465276   -1.81163271963414   -0.82265187317621
C           6.23930915750730   -1.44452275644351   -1.93489634909832
C           5.75686866361320   -0.10964587249011   -1.89155293948864
S           5.02334537424356    0.44922357409205   -3.36617360242647
C           5.19519204012055   -1.04294826509725   -4.26776663047811
S           4.69579613903850   -1.15165599082132   -5.81405566605662
S           5.92809494069006   -2.35984190063645   -3.38848778045630
H          -5.72868716744055   12.08049718531601   -5.23266020423009
H          -7.80379622023813   10.59675129189498   -9.55173043057076
H          -9.03222371689255   10.05042530986536   -8.41172640140509
H          -8.65536431499626    7.60155504331577  -10.53852920402282
H          -6.54071780262123    4.36477097896030   -9.81848826985887
H          -8.76281903580421    5.55192373662563  -11.56339581066847
H          -8.91583337930784    3.50302271251346  -12.66956558432541
H          -8.39353237818478    1.15492903138446  -13.22563995430574
H          -6.82870226963688   -0.78707506279249  -12.59136573592094
H          -5.14952643159046   -2.20800781455808  -11.56586822905718
H          -3.23115339359150   -3.16409428067770  -10.13023684120768
H          -1.61162241034611   -2.48851628394994   -8.23211786748091
H           1.53627061486584    0.09637203358781   -3.97676282089574
H          -1.52033958946744    3.35586495473663   -5.78585184873211
H          -0.70248294113187    5.33168170020630   -4.36494825729101
H           1.03759760953127    5.91519958576404   -2.54904003880222
H           3.28246461078091    5.66846766683018   -0.93647292723566
H           5.37453936210130    4.63554856380585    0.16682744585270
H           6.55131078535314    2.25815061279558    0.46684819170104
H           7.38850245417043   -2.75544998732220   -0.60630177846476
