109
 SCF done       -180.257642645330          0.002139667579
C         -11.59148376781378    1.81149130511792    6.76048113803401
S         -10.73097545503787    1.63821833441183    5.24078131701676
C         -10.55594784519643   -0.02788428083429    5.62152965539295
C         -11.15614247043487   -0.30561932454317    6.85014443800384
N         -11.72629960572238    0.74022263732762    7.46282942391219
C         -11.01393830837578   -1.75342011893678    7.19919216174448
C         -10.25562928644861   -2.26226600975437    6.00687972347578
C         -10.00536220720169   -1.22202728704048    5.10462749926242
S          -9.14491673767393   -1.74470748584221    3.71488486130898
C          -9.11494394952042   -3.39182126852568    4.34081837869511
C          -9.75415131472641   -3.47959676033577    5.57687811309992
C          -8.51563771788991   -4.43967573093137    3.62657245550325
C          -7.91071217771962   -4.30979130457151    2.40041180003855
C          -7.34560216977539   -5.36757227476839    1.69670761449549
C          -6.75231794495300   -5.25499002708166    0.44971919112421
C          -6.20141296693028   -6.28822290740734   -0.32543577426980
C          -5.70712643070468   -5.87774359352213   -1.53936628177440
C          -5.84251793367387   -4.50410707987231   -1.76875652248998
S          -6.61018438294908   -3.73020113321839   -0.40522977313449
C          -5.47253939537217   -3.78367353688374   -2.91012537034790
C          -4.93062438120287   -4.27492885572488   -4.09916967486661
C          -4.73184296616704   -3.30424049442986   -5.05824244656098
C          -5.09469178732724   -2.02029933402679   -4.65306006628320
S          -5.69955792117204   -2.05600766053922   -3.01295502475094
C          -5.04021278382511   -0.84584365390235   -5.41456871404878
C          -5.33280820162861    0.40363839582632   -4.94213714607031
C          -5.35666154084795    1.57024611304821   -5.71753737132898
C          -5.57385997468178    2.87162613244258   -5.26719445824835
C          -5.58794124245629    3.81924522861786   -6.26968950259933
C          -5.39565107130204    3.28813782420574   -7.54501475512192
S          -5.15957657822589    1.56082851561807   -7.45489768280785
C          -5.42647713175365    3.96063875254099   -8.77373052281571
C          -5.62202237851255    5.32769173871163   -8.99056978639877
C          -5.66912768501054    5.67174075239121  -10.32018521073539
C          -5.51389061729012    4.58765776824349  -11.19745468084099
S          -5.27855987371865    3.11243905058859  -10.29175428124757
C          -5.57788736039290    4.64762992730215  -12.58410780276311
C          -5.43733739884040    3.54888802154552  -13.42976904017665
C          -5.58246457667484    3.58036018750922  -14.82348542448523
O          -5.43698317772345    2.44102896745061  -15.59255215603276
C          -5.15568345669436    1.29173372111295  -14.92811209344983
C          -5.01627451722368    1.25631835206184  -13.51083627202348
C          -4.73743989298858    0.01764062971166  -13.03554495855208
S          -4.63837052751245   -1.13046533248749  -14.31800328791082
C          -4.97765793474374    0.07480394169558  -15.50312133953266
O          -5.15220230582427    2.37509741997553  -12.75617937630382
C          -5.90978241701142    4.73645460224762  -15.56107245132559
C          -6.15379633365201    4.72734275284409  -16.90497318646617
C          -6.52570054227726    5.84523005598731  -17.70702910791021
C          -6.94287441180321    5.62522119629854  -19.01069268015998
C          -7.37543168560149    6.68841519764020  -19.81695228186649
C          -7.87867619473475    6.71934269278585  -21.11458453731288
C          -8.06097645290747    5.53921584383175  -22.00988307045350
C          -9.53607180494636    5.33453299210306  -22.39015287587371
N         -10.35187754893506    5.29805905514445  -21.18911991487500
C          -7.17210518374744    5.63863371053100  -23.27502522345474
N          -5.75557406793340    5.77018865966617  -23.00592953699057
C          -8.17553480395736    8.09711025747452  -21.41648205657435
C          -8.68869552934969    8.69762433026362  -22.50988201761695
C          -8.90056464201050   10.17087380292503  -22.57816172125044
C          -8.53767449738320   10.91194097312854  -21.33045688399196
C          -8.02550766692098   10.30487298661561  -20.24613313879207
C          -7.82582045650950    8.90212880684450  -20.23540897726675
C          -7.34571368674835    8.04072363173033  -19.27459266199910
C          -6.87774296964993    8.24947590195754  -17.95495677062221
C          -6.49238192682617    7.19146692445846  -17.20291388354317
C          -8.09254513821988   10.72497404453197  -23.73307482052937
C          -8.61073252397244   11.35193807422977  -24.77133298830087
H         -11.97073316679155    2.76851403771404    7.05422338135661
H         -11.98420471266772   -2.24181143632979    7.31056658826519
H         -10.46250293076707   -1.89350186415994    8.13115363272735
H          -9.83617378535023   -4.40694335915635    6.11505206512203
H          -8.55269143362205   -5.41622076559468    4.09278159759961
H          -7.87660672399558   -3.32757059786152    1.94385614927656
H          -7.37598248209275   -6.35693786607847    2.13531673816221
H          -6.18653787148861   -7.30691072301677    0.02024044431493
H          -5.25542314308563   -6.53730927609851   -2.25862573497900
H          -4.70593260675034   -5.31627699781845   -4.24345800107293
H          -4.33159907705447   -3.49860168215592   -6.03788059630816
H          -4.74729591874423   -0.95684165862812   -6.45132937659041
H          -5.57309072040620    0.52065081571566   -3.89248498188412
H          -5.71725729901367    3.09556239080603   -4.22473179331469
H          -5.74509531179835    4.86928887227844   -6.10012862445331
H          -5.72902600344512    6.03194027953216   -8.18507462755156
H          -5.81920192628664    6.67430184806230  -10.68057222175492
H          -5.76545422440339    5.61628649605317  -13.01486673202094
H          -4.58758166943737   -0.27769315349983  -12.01852674653606
H          -5.02427579451334   -0.17879565756714  -16.54117049390634
H          -5.99365180930776    5.65457440107881  -15.00589868238975
H          -6.10295979600995    3.77377354366423  -17.41380788398797
H          -6.95673611039041    4.61331055240366  -19.39306193423465
H          -7.74044754268727    4.64777794596556  -21.45549599316015
H          -9.61342049778340    4.41836296067367  -23.00427596559237
H          -9.88821174750015    6.17156038352458  -22.99664827862614
H         -10.05916782607767    4.53684119307618  -20.58414163259515
H         -11.32814933469714    5.15341442329982  -21.42424162169267
H          -7.47281926685394    6.50094633220015  -23.87363648077168
H          -7.31463990205054    4.73840878028191  -23.88069096910242
H          -5.58441651467365    6.61146181383832  -22.46327501733731
H          -5.42679824626761    4.98357258747777  -22.45446577657029
H          -8.95643751973367    8.14959110578212  -23.40170729715226
H          -9.96185854633962   10.35332438244998  -22.80344500788664
H          -8.69556890119004   11.97985375280350  -21.35658505161266
H          -7.76768899582465   10.87483494306599  -19.36493212640269
H          -6.83584590796651    9.25458888351205  -17.56032322626243
H          -6.12884865354910    7.35517169364143  -16.20184323321478
H          -7.02488347476795   10.57928974762765  -23.64219515515687
H          -9.67254906821749   11.50841009466024  -24.87464840091127
H          -7.99405369645368   11.73977602422848  -25.56414111551858
