101
 SCF done       -183.940043512415          0.000509065436
C         -11.74937285023291   -9.11714914951769    5.36132752870379
S         -12.72212421472972   -8.51770102768475    4.03387113655737
C         -11.29279410602372   -8.53903914313903    3.08243258931588
C         -10.21463570695767   -8.99217870848053    3.84269040155095
N         -10.50041191931136   -9.30753832646321    5.11282439473187
C          -8.95936406566179   -9.01953798758389    3.03185781917318
C          -9.46245318146537   -8.52374563513787    1.70801116578954
C         -10.83518336965306   -8.25142651991339    1.77479051210836
S         -11.46532623909432   -7.68432802486761    0.28981207569156
C          -9.87418149225664   -7.80929479213580   -0.44766016051176
C          -8.92391427122225   -8.27396897551349    0.45630482498603
C          -9.71903950434277   -7.45606758905127   -1.80414430842814
C          -8.54356354634619   -7.51579114193940   -2.49040332344366
C          -8.39780703371284   -7.17342770951971   -3.84480993769488
S          -9.71293195810387   -6.61134847907623   -4.86332187782594
C          -8.63675348061839   -6.45236322871495   -6.34016328524717
O          -9.06408833820038   -6.08063319486989   -7.40061998802315
C          -7.32098787275914   -6.84640459014988   -5.92725975485152
C          -7.21566768670609   -7.23361314546926   -4.57167818707919
C          -5.89882669164183   -7.63845429695736   -4.16221254734077
O          -5.48105095880069   -8.01481414400384   -3.10028874920490
S          -4.82381163997659   -7.49122608388367   -5.63651114260153
C          -6.13606156983018   -6.92144028194052   -6.65427026334117
C          -5.99169749266294   -6.59897437523402   -8.00757558763220
C          -4.83773122559183   -6.71733365264681   -8.73201933070019
C          -4.76412676615198   -6.39656925207664  -10.09229250105683
S          -6.14283873123641   -5.76651878246965  -10.97861374642111
C          -5.21817995495889   -5.65434637555640  -12.52956443413237
O          -5.74220703742162   -5.19964884019183  -13.52196356700905
C          -3.89159445253600   -6.14025377455882  -12.28885855427747
C          -3.66912653239342   -6.51289705553315  -10.94076741880632
C          -2.33281961628645   -6.94908585642506  -10.63015741046120
O          -1.84307036683290   -7.32616099732499   -9.60213538564843
S          -1.38438545087965   -6.82533077243576  -12.18152780096930
C          -2.76772829087431   -6.26745444862117  -13.11969535931069
C          -2.55921452106720   -6.04620872221765  -14.48360451259802
C          -3.52526694159123   -5.76348786575575  -15.42215657861908
C          -3.22874539596945   -5.59429680158803  -16.78638645599503
C          -4.16948933621007   -5.28759045559721  -17.77004516793336
O          -3.86658198714149   -5.37650688151373  -19.10860343682322
C          -2.58169008802788   -5.68882866820246  -19.43062287060788
C          -1.59436192035197   -5.89451201546129  -18.42595539398323
C          -0.36982726758782   -6.16723615409927  -18.94097893301005
S          -0.40853773854980   -6.17840171080840  -20.66523315745319
C          -2.09063741712697   -5.81144043718123  -20.68981133844832
O          -1.89949880941805   -5.83138971462691  -17.10460671994638
C          -5.52611507619541   -4.89706354663521  -17.60212996396947
C          -6.10833394955569   -4.33198259110505  -16.51253511265388
C          -7.49384487205158   -4.01139334454485  -16.35684910195103
C          -7.91220317443154   -3.64924315086102  -15.08576626466762
C          -9.26548591910224   -3.40744665670626  -14.81273201173602
C          -9.93609209498953   -3.09075353976312  -13.63237935377378
C          -9.44352105402759   -2.95009532291199  -12.23584663961881
C          -9.54733237615501   -4.31028980279055  -11.49642694157379
N          -9.66260234077756   -4.06458909293587  -10.07980922678632
C          -8.02646232312572   -2.37253759313955  -12.11145572201008
N          -7.80369564479311   -1.88713801918640  -10.75719974235827
C         -11.33755969060779   -2.98431662534344  -13.97551032908743
C         -12.41425521909268   -2.72555278193196  -13.20876398652524
C         -13.78822326955130   -2.70907569540147  -13.77791901944899
C         -13.85012306837904   -2.90317500850579  -15.25995099122689
C         -12.76548807072449   -3.16256604594748  -16.01205876497822
C         -11.48183007054339   -3.22699289241086  -15.41516182995154
C         -10.22248548550060   -3.48983637381014  -15.91219804642047
C          -9.76606809019126   -3.81940662543606  -17.21090580480725
C          -8.45229536846011   -4.08288890394764  -17.42146878188667
C         -14.58767474777519   -3.81111392680088  -13.10761956476595
C         -15.67228766797304   -3.60894948857585  -12.38648053719269
H         -12.20014247268762   -9.30441005550513    6.31459672716419
H          -8.54052930782316  -10.02517440280933    2.96490436759655
H          -8.19010340681402   -8.36920929087804    3.45198643828387
H          -7.89208772887675   -8.41799670443295    0.19409839402849
H         -10.60533041030401   -7.11801771639097   -2.32645415204055
H          -7.63637876417163   -7.84566782215240   -2.00357672370959
H          -6.88838031952537   -6.23938669065215   -8.49915879540049
H          -3.93242130916374   -7.08433406611719   -8.26519641498661
H          -1.53276268265187   -6.13008443845944  -14.81430600399236
H          -4.55658720361472   -5.72266815057678  -15.12324443467315
H           0.54065257892041   -6.35998932323604  -18.41381449612438
H          -2.61496427702366   -5.70693813081348  -21.61635634903606
H          -6.10204576216522   -5.02231984248311  -18.51002245488525
H          -5.50132648989716   -4.10026110676615  -15.65201312674447
H          -7.18433071452079   -3.61726863228083  -14.29505577200408
H         -10.12077236274801   -2.27246865735736  -11.70394480040316
H          -8.67656733695989   -4.92085436514103  -11.78682707359745
H         -10.44940541180407   -4.83755134350801  -11.82745347661839
H          -8.85614132026923   -3.53314241541877   -9.76463214295315
H          -9.71665443181061   -4.92501215772996   -9.54712859689951
H          -7.89203809169375   -1.58899226014938  -12.87767719044982
H          -7.28801548191425   -3.15729566175553  -12.28763445908730
H          -8.41803797596704   -1.10536157467815  -10.55298633213623
H          -6.84658079977151   -1.57088097617242  -10.64739723374811
H         -12.33244597614460   -2.56487468743893  -12.14250169915584
H         -14.26608889699057   -1.75471694463918  -13.51666115705096
H         -14.83622777721892   -2.85531465617436  -15.69685173514194
H         -12.85639891535443   -3.31545756733926  -17.07778720548811
H         -10.47684548867114   -3.86728247010978  -18.02319353109668
H          -8.11006027116185   -4.33934735966045  -18.41182187144252
H         -14.20137424193431   -4.80627602783843  -13.27666354211887
H         -16.06943493339310   -2.62241270848601  -12.21006718411157
H         -16.21215340217121   -4.42640897730712  -11.93991349263354
