130
 SCF done       -198.446544831551          0.000458905243
C          -6.12057798629257   -4.86053952587835    6.69878584697506
S          -6.48839508772432   -6.57566698353956    6.69970727779726
C          -6.10072785946924   -6.57824080812314    5.02725336493674
C          -5.73182756139634   -5.30017707128682    4.61672445441003
N          -5.75214539016114   -4.35937931675696    5.57239491553024
C          -5.39069717087580   -5.28345356486045    3.16036920807842
C          -5.61616641804334   -6.72273724781285    2.79728587376564
C          -6.02974350500615   -7.44987648203131    3.91168601563690
S          -6.30156375224891   -9.10229141520414    3.54759219852409
C          -5.85539008910352   -8.82433513625277    1.87276911110466
C          -5.51868571858325   -7.50211080263962    1.64737905135727
C          -5.88843176931045   -9.92976574690018    0.97351025617270
C          -5.57048636210747   -9.86688260973397   -0.33539643575299
C          -5.59406241070891  -10.95238159087451   -1.28521790624078
C          -5.23786276835750  -10.67226226653835   -2.61546221660578
C          -5.25417187671619  -11.66828600965549   -3.56005274276950
C          -5.58340347346833  -12.98604479955971   -3.19208638312544
C          -5.93897602972677  -13.27791404858978   -1.88213982400140
C          -5.95158581238538  -12.26447264748964   -0.94644685191836
C          -5.42902353547929  -13.84183854833246   -4.34658118906536
C          -4.99938518836247  -13.05454702193779   -5.42936023997149
C          -4.92671050029491  -11.59441475263491   -5.03393150742881
C          -3.54090488919677  -10.98792037060655   -5.29586246668554
C          -2.42701235176415  -11.77365132681487   -4.61352607465274
C          -6.03071769281366  -10.85972652874939   -5.83087257973754
C          -6.27470636504626   -9.40647612186705   -5.44588608444005
C          -4.74579164873976  -13.61678136117454   -6.65312210288271
C          -4.91318211496203  -15.00153438804822   -6.83476430207725
C          -5.35368818421526  -15.77045345524391   -5.74438484893356
C          -5.60859356567645  -15.20922270395082   -4.51083350135287
C          -4.65888559254786  -15.65006997567468   -8.09163615917291
C          -4.16046106713005  -15.05228302180387   -9.20358629100077
C          -3.93006394154254  -15.69165024732086  -10.43716952093251
C          -3.42357769717747  -15.03346108237381  -11.52697661599592
C          -3.16416060910170  -15.54463047500678  -12.82388750723930
C          -2.66743571926480  -14.63070618082916  -13.70194960849206
C          -2.49789612985834  -13.33854661722044  -13.15285344362530
S          -2.99648638859601  -13.32653989604095  -11.47452622225359
C          -2.02472455177735  -12.19249187086239  -13.75212359726326
C          -1.59662012811036  -11.98648971840816  -15.08388703997612
C          -1.19574743550591  -10.71465697370234  -15.34241140461778
C          -1.27237105055276   -9.82054646589581  -14.23399125949754
S          -1.88519915802664  -10.70248743418206  -12.84065183898563
C          -0.94368033163065   -8.49672966850294  -14.28445397888356
C          -0.97129021044729   -7.49349230061656  -13.26439718264848
C          -0.71809875534601   -6.15808404427479  -13.64297407341744
C          -0.74542056742786   -5.16089110123762  -12.70383356412066
C          -1.01125917411689   -5.45666083105592  -11.35389236679047
C          -1.24930320152614   -6.76653084035119  -10.96166791633126
C          -1.22983098649145   -7.76538367231980  -11.91050641437618
C          -0.97229120095137   -4.22974627223315  -10.59458900356393
C          -0.68620838729608   -3.16714935973031  -11.47112846945470
C          -0.52358816512529   -3.67637321171567  -12.88575348886838
C          -1.58117361222524   -3.06549878055672  -13.82416313379894
C          -3.00778875927173   -3.32263620448977  -13.35409228559979
C           0.88444459239784   -3.37875320579355  -13.43236404748872
C           1.99110727909132   -3.95517334570911  -12.55774918003373
C          -0.58997348133109   -1.87997310887055  -11.00610732102557
C          -0.77715616935748   -1.61982856276195   -9.63785239322415
C          -1.05995891170071   -2.69328694048054   -8.77868914327679
C          -1.16017631374677   -3.98841868939730   -9.24044144451827
C          -0.69136025538418   -0.29925234956806   -9.07184332205297
C          -0.45352998956374    0.85601532666334   -9.72950070726793
C          -0.39008531774975    2.10680416029143   -9.06301342719422
S          -0.07688067483628    3.59415654824843  -10.00650356380323
C          -0.17092133350493    4.46496134538085   -8.53423146870018
C          -0.42393479326807    3.59440326196589   -7.47085268017737
N          -0.54022155548069    2.30761098596511   -7.78450049636100
C          -0.50770628371037    4.34319413686137   -6.17790141797980
C          -0.26985898942163    5.74978098826336   -6.64455799228024
C          -0.07752754316472    5.78148345793437   -8.02464824265165
S           0.19773803588925    7.37022866594566   -8.60702491666840
C           0.05402441730775    8.00812419256442   -6.98106600339244
C          -0.19439085224600    7.01207588143263   -6.05923066321012
C           0.20154741008733    9.42264307373993   -6.78658631694470
C           0.11394320451744   10.05586242094314   -5.61776576057095
H          -6.20936445410736   -4.29426097899686    7.60319099071935
H          -4.35880135103869   -4.97110141578284    2.98970144961192
H          -6.03942547391169   -4.60833951310727    2.59937099712920
H          -5.21729851504343   -7.12789534346435    0.68641200824190
H          -6.19765245193768  -10.86638765065673    1.41556771194889
H          -5.26496284561430   -8.91237619791689   -0.74420349716464
H          -4.93932346864952   -9.66686221919273   -2.87455378120407
H          -6.19671781977969  -14.28703285329532   -1.59608921842363
H          -6.23026108714405  -12.49488791944620    0.07008115870270
H          -3.52462372532300   -9.95968173807865   -4.93181213653939
H          -3.36301923972257  -10.96571638070225   -6.37310949965097
H          -2.58001248080571  -11.79744596017186   -3.53660235332139
H          -1.46315024053399  -11.31149729948797   -4.81508632336457
H          -2.40076066867245  -12.79817728277936   -4.97787162021730
H          -6.96281331807307  -11.41616317760995   -5.70084583598514
H          -5.76353965891494  -10.90867141856226   -6.88893151733966
H          -6.63941792875628   -9.33218065474581   -4.42509064826968
H          -7.02883092761519   -8.98180081627843   -6.10538955905171
H          -5.37010469010514   -8.81226413546020   -5.54432431453161
H          -4.41993387619835  -12.99814500197119   -7.47441749971952
H          -5.48939533633209  -16.83403279708253   -5.88287192451869
H          -5.94227090506441  -15.82393911571944   -3.68782172399085
H          -4.88720431412004  -16.70827764653682   -8.13493141440586
H          -3.90779555191364  -14.00063718647988   -9.17782427345099
H          -4.16647460527845  -16.74238602976247  -10.53890456043287
H          -3.35773926233490  -16.57555896540617  -13.06440727800240
H          -2.41689623297931  -14.84643987548459  -14.72564144102466
H          -1.60261834629341  -12.78045637371809  -15.80959672027286
H          -0.84198736792392  -10.37482212590238  -16.30035863544846
H          -0.62566315678846   -8.14687680865112  -15.26040749849529
H          -0.51208974231291   -5.93475420695288  -14.68061235844114
H          -1.44669066447788   -7.00389856261191   -9.92702242677831
H          -1.40386089143734   -8.78046580785404  -11.59522558289268
H          -1.44745256145574   -3.48692694767939  -14.82288806725195
H          -1.41011485837195   -1.98885693395010  -13.89046411216234
H          -3.20858625211404   -4.39050973622908  -13.30287858649910
H          -3.71667494912289   -2.87129237308908  -14.04469126801247
H          -3.16923183860172   -2.89584416748508  -12.36667668550502
H           1.00920681962532   -2.29638706094530  -13.50824427024242
H           0.96400316162975   -3.79481451753803  -14.43910839732959
H           1.94360332731840   -3.53779971733637  -11.55435423890188
H           2.96468518008232   -3.72132382583630  -12.98257831783872
H           1.89761655404339   -5.03643552989055  -12.48382725423710
H          -0.36959469353904   -1.07017451758163  -11.68442348666406
H          -1.20248203522039   -2.48873044853075   -7.72716919716062
H          -1.37956520888240   -4.79917722383539   -8.56178839385422
H          -0.83554530130511   -0.22994521119696   -8.00169629052238
H          -0.30033931661221    0.88803100089963  -10.79807039601285
H           0.25011449890075    4.00807716958275   -5.46738206472655
H          -1.48405456532853    4.22335710891866   -5.70469067489494
H          -0.31430127843073    7.20239503906402   -5.00848138153862
H           0.39951625571381    9.98768409152402   -7.68820103492620
H          -0.08089982724707    9.53618744065395   -4.69610058279213
H           0.23819491206569   11.12199247607214   -5.55107339249317
