92
 SCF done       -165.432817641119          0.000868200922
C           7.52158456743374  -20.70679159179330    0.62041636695382
S           6.55926967222771  -20.00234578441180    1.90534404484696
C           6.07722056854229  -18.80147763327454    0.77706557276983
C           6.67688435981364  -19.03364574802660   -0.45881603379451
N           7.47948512882482  -20.10582941582341   -0.51693699194539
C           6.26755373224635  -17.99672221134015   -1.45588226885728
C           5.35178332922456  -17.14579836270262   -0.62472439809926
C           5.26584719679788  -17.64504878188544    0.67601395410612
S           4.23224629476398  -16.71271384534919    1.67548680130785
C           3.89827653144409  -15.62674432192575    0.33374231660629
C           4.57818579321712  -16.00643326830394   -0.81365461565748
C           3.02516970614386  -14.52297667730901    0.47636767117442
C           2.38143287518059  -14.19280593177924    1.62435454886218
C           1.49912008563118  -13.09782562485259    1.73680218774046
S           0.69063765729020  -12.78933589363908    3.30461082823628
C          -0.09347807488956  -11.46198395702559    2.55800915142812
C           0.30582825530878  -11.34971265879876    1.21712466056196
N           1.17637088132232  -12.25390843969079    0.79165801587784
C          -0.38252046843998  -10.19693446928289    0.55502005804615
C          -1.23100694868398   -9.67845340074090    1.68054347586672
C          -1.02656576403419  -10.44718008893191    2.83606472298145
S          -1.97924844059606   -9.91097580237256    4.15503641607445
C          -2.67791182725806   -8.64079611546945    3.15341422459982
C          -2.15567086930897   -8.66496271815346    1.86084970546420
C          -3.65318191968942   -7.80818306071349    3.72661409451079
C          -4.32887234881879   -6.79278253524315    3.10096743533450
C          -5.32836252256230   -6.06276177832422    3.74768199513947
C          -6.08211216559409   -5.05212955003049    3.19377350991979
C          -7.13622632925583   -4.36252332413038    3.83230475108774
C          -7.74580113144250   -3.42466965129457    3.05278632501468
C          -7.19761716432131   -3.31012397257009    1.75798398225240
S          -5.88098250967122   -4.44310819852487    1.55757350959523
C          -7.60640837820647   -2.44265708166179    0.75757517611455
C          -8.69825488839964   -1.55166992060626    0.82412429612115
C          -8.87583414205531   -0.81713264848675   -0.31039695639980
C          -7.92498904070341   -1.08504699134739   -1.31943492443051
S          -6.79998016968106   -2.31325169523109   -0.79667441177240
C          -7.84952175230280   -0.47520201178960   -2.55176076767826
C          -6.85310546243456   -0.75839557902314   -3.48140270289101
S          -6.80174552451586    0.11265388608429   -5.04921323054253
C          -5.38717823768732   -0.78485136818092   -5.41274629066428
C          -5.06870569884346   -1.65657062588649   -4.35702840295082
N          -5.88064094732817   -1.62737825262499   -3.31478528915291
C          -3.82861779586809   -2.43326336637408   -4.67208699065506
C          -3.47663108040584   -1.88564980759890   -6.02598003824279
C          -4.41965809950181   -0.92663480280437   -6.42184336038252
S          -4.06711399112531   -0.25667813695038   -7.95889249476995
C          -2.63052096116998   -1.26251203655236   -8.08352593195693
C          -2.47310484905667   -2.07141250729754   -6.96311460347949
C          -1.82925570385759   -1.13335857331588   -9.23918647049661
C          -0.67515679002850   -1.80412841735054   -9.49385134593666
C           0.06614470145606   -1.58482360980519  -10.67554242721149
S           1.59404287510138   -2.47844143939159  -10.95272816070634
C           1.74020917728197   -1.63051614814847  -12.43483159471577
C           0.65557941986284   -0.76283535209812  -12.60663948296724
N          -0.24640647311154   -0.75443630405064  -11.63349994673870
C           0.77215172101080   -0.01324378994047  -13.89621139970625
C           2.06141424574807   -0.56285839421730  -14.43237574469604
C           2.59600158079081   -1.50428974018938  -13.55295367654763
S           4.07462218595018   -2.15961361407389  -14.12331295212481
C           3.98210337379645   -1.16025776873187  -15.56017526052720
C           2.84881563582419   -0.37264356044163  -15.56532755226396
C           5.03601469875035   -1.25532407451241  -16.52969542493071
C           5.10903535870847   -0.55799074227114  -17.66274635178831
H           8.10012779876480  -21.58836098180214    0.80670111192210
H           5.75946654669872  -18.43681374009324   -2.31544539073964
H           7.12563097890717  -17.43494144193737   -1.82957595843870
H           4.49740459743117  -15.46137266206001   -1.73677868625281
H           2.86694011375487  -13.91160397470992   -0.40087708056492
H           2.52522909081326  -14.78692762206977    2.51711882792660
H          -0.98032200423732  -10.52007177676722   -0.29900850239041
H           0.33101768438560   -9.45180520342319    0.19847789230841
H          -2.45789367052471   -7.96727431707238    1.10167560444163
H          -3.89745666954989   -8.01478033658761    4.76150339828413
H          -4.10979471842501   -6.54626096360917    2.07134394608563
H          -5.55544162604379   -6.32191777794941    4.77457596486237
H          -7.41732335327431   -4.58551864777306    4.84658554352030
H          -8.56633010828411   -2.81233375560012    3.37997715961527
H          -9.32734536709709   -1.47668895277022    1.69268342408317
H          -9.65480675370956   -0.08899248908620   -0.45266485710670
H          -8.58591295438010    0.27137584019762   -2.80845159551708
H          -4.02407154268590   -3.50698306996642   -4.69656065445816
H          -3.04464175006679   -2.25543706844303   -3.93388671429000
H          -1.65344077654021   -2.75776091308154   -6.85369761575094
H          -2.16515442010497   -0.42551015948489   -9.98429954898577
H          -0.27601869305652   -2.52576447771757   -8.79719386973360
H           0.81671160844094    1.06513699235534  -13.73278911032457
H          -0.07229245858157   -0.21484173479428  -14.55787422681755
H           2.61229607664771    0.30900658044505  -16.36155248981256
H           5.81802291129972   -1.96259963872212  -16.28482001018905
H           4.35469832855579    0.15419871806837  -17.94859208114988
H           5.93192799217416   -0.68471713698975  -18.34327578348731
