107
 SCF done       -192.451310559290          0.000674331175
C           5.70948975804373    5.41451438919876    5.06276029040950
S           5.42571875080869    3.98789594485289    3.94906454297185
C           6.31659041006734    2.81417073028135    5.02778904797512
C           6.52958740844378    3.49772642907220    6.37649318022412
C           6.77521686614981    4.97753893613620    6.05555398452868
C           7.78412925155614    2.92425012266150    7.09579422504076
O           8.63072877456485    2.28970865117951    6.50863088756886
N           7.84831805913089    3.26284393497753    8.38589824028298
N           5.38559924121543    3.37606873371495    7.26172709683949
C           4.98134367756019    2.16637434302241    7.70947567678644
O           5.77378879236733    1.09085517659579    7.51325068035711
C           3.86502095844794    1.79332781535645    8.41724040554748
C           2.61697730567172    2.25934888063094    8.99045514329360
O           2.11376258955093    3.35717785249126    9.01892234734370
N           2.06187113057512    1.10496999488130    9.54727657304794
C           2.81402182469555   -0.05779405716134    9.39133387169221
O           2.49410996447985   -1.14692429895888    9.79654589137365
C           3.99535910151171    0.39050066491097    8.65391345118071
C           5.17616468796318   -0.01375562592985    8.08387484543305
C           5.76863328287303   -1.30012324353277    7.94760305161138
C           6.94003591082503   -1.52197286321881    7.31995423110886
C           7.43588965827796   -2.85780243984607    7.05661665657875
C           6.52690733454902   -3.83347681717949    6.75829607366757
S           7.19460333847838   -5.37766060805077    6.43399842329748
C           8.77915467618024   -4.74056802679954    6.73814730616049
C           8.79128186079308   -3.37215658648546    7.05153290438817
C          10.03236451578277   -2.77248765211362    7.38003819948151
C          10.05289571903293   -1.28983254846008    7.64625137941958
C           9.61916626806486   -0.95001917444157    9.07235749518793
C          11.19706632836458   -3.53916617541310    7.45206952393088
C          12.44537614395357   -2.96304726306277    8.06683944025472
C          12.79099786343995   -3.68215776694232    9.37298623912926
C          11.18890656721746   -4.89522732450655    7.02877281765080
C          12.24952063352834   -5.88464792343693    6.87124972840043
C          11.73891549976738   -7.09905539594143    6.46288748407810
S          10.05616625030805   -7.14026815593177    6.22691308821538
C           9.95495038045398   -5.46571435938382    6.68714401204390
C          13.65591251533745   -5.70065579806042    7.03208028819803
C          14.59155347595111   -6.69755389273076    7.00263664059770
C          15.98089932044691   -6.54717933103070    7.15376003734862
C          16.73033466871588   -5.43722544462159    7.47810999244888
C          18.14112994806707   -5.42800491404586    7.59892958578875
C          18.67291316083925   -4.22783236703404    7.97169214978378
C          17.70664355051533   -3.22242635306749    8.17290051847316
S          16.11107742083725   -3.84068749816084    7.85706159243518
C          17.89218767097602   -1.90470834652607    8.57037343191971
C          19.09173144981132   -1.22190478081266    8.83260153107848
C          18.90816714549899    0.08277765277041    9.20761130605485
C          17.55907909282857    0.48073699096977    9.26288125180993
S          16.52005482387861   -0.84924563207928    8.81621585451046
C          17.05572431426569    1.72678100160079    9.61611558433103
C          15.69649657246022    1.97587611608972    9.65521344058333
C          15.09113123778546    3.18026719621914    9.98219127617443
C          13.68344161947509    3.42456835103244   10.03706010471038
C          12.66594304698870    2.50852338417113    9.84415193213144
C          11.30066141834714    2.80598263530520    9.89757943194314
N          10.15848574062015    2.95287900673802    9.92143869184239
C          12.82796623049618    1.13864048097044    9.57072318035779
N          12.85447222947398    0.00926838962627    9.35572043465506
C          13.48569743288665    4.83654513157039   10.35902562691169
C          14.75416697095453    5.44310189661770   10.52407784551980
C          15.80835882972891    4.42416336529461   10.30123417794242
O          17.00865052251045    4.60606844814792   10.36915024193629
C          14.90364667792705    6.77038248707421   10.83482500436380
C          13.74322733760073    7.54030866377595   10.98753078352031
C          12.48245057771048    6.92619002168141   10.81848834565055
C          12.33175713930050    5.57935687140580   10.50636527112914
S          11.18381888920880    8.05981373065594   11.04768207699998
C          12.33968934515320    9.32631669391824   11.36334714615289
C          13.63018976378116    8.92285514009405   11.30161938455847
Br         11.73095542812424   11.06043471326445   11.74533565554229
H           4.76334230456186    5.65789441033490    5.54862069215504
H           6.02352957291284    6.26353001148489    4.46001547458379
H           7.28288820046289    2.57736049774673    4.58099338215773
H           5.72910570560930    1.90233702724104    5.10967250397055
H           7.76410617545063    5.06556757446918    5.60179801740783
H           6.74977134925555    5.59001491530381    6.95775224666406
H           7.10473642034439    3.77403947065306    8.82756880540020
H           8.66657969392074    3.01371539347149    8.94281225574629
H           4.65383262235404    4.06865642533670    7.19255958682203
H           1.17256136430406    1.11087575122199   10.02530179321017
H           5.19356564775994   -2.10340622530571    8.38457987444125
H           7.49167752245713   -0.67061130715565    6.95219283178225
H           5.46517275364361   -3.70864196445449    6.67353401922162
H          11.04394330788098   -0.87633995656302    7.47010162142208
H           9.39546122415494   -0.79493802129758    6.93466441336375
H          10.33432680466211   -1.34470097569021    9.78964987363964
H           8.63933824186707   -1.36844637142899    9.29067603008060
H           9.57021124224721    0.12915016273264    9.19433827436858
H          12.31062682481770   -1.91817425050812    8.32122826221439
H          13.27968523168837   -3.00378427719201    7.36566596327444
H          11.96985362960222   -3.57222694486884   10.07766530149043
H          13.67919100040653   -3.23187120196546    9.80850223539670
H          12.97378028096437   -4.74445609515094    9.22935380856381
H          12.29521045762282   -7.98910376968844    6.24568672140763
H          14.00603979630543   -4.69258130383483    7.15336123583718
H          14.26725031775954   -7.71770801370001    6.85270054923894
H          16.56481969955172   -7.44984024168111    7.01606532217530
H          18.72346444495723   -6.31231756183720    7.40760292453237
H          19.72294421249390   -4.04779964893952    8.11469259878372
H          20.05324396710022   -1.69430771103284    8.73886408260898
H          19.70464337775008    0.76446666862546    9.44714502007905
H          17.75320843142499    2.51154381214557    9.86855304145552
H          15.04790124930500    1.14642856518252    9.40108483070490
H          15.88292147713746    7.20599429978214   10.95614004958637
H          11.34792392749201    5.15715056693504   10.38751189913486
H          14.46987516686770    9.57205198410359   11.46969620476607
