60
 SCF done       -103.249917145655          0.000564906255
N          -4.07151093234578  -15.15075666211198  -24.22141278645212
C          -3.49024003227011  -15.90601315547360  -25.16878902589124
O          -2.49721536072425  -15.55836899172541  -25.77407821916292
C          -4.16507884062874  -17.25261059593876  -25.50138605615924
N          -4.17714308170317  -17.36181937776643  -26.94489839603595
C          -5.59622529547552  -17.37980523391090  -24.97515968864853
S          -5.48200188250557  -17.76632258837468  -23.19541332207051
C          -3.73357208346191  -18.32127833573901  -23.30000593987029
C          -2.80014568581402  -17.42626909481922  -22.53798905467143
N          -1.50697931965360  -17.70438729077854  -22.67162707852048
C          -0.65161791310048  -16.92212788354415  -22.04732225579959
C          -1.06792685166659  -15.84534111705279  -21.25905774313228
C          -0.12141666129086  -14.95060551613729  -20.60206064137520
N           1.17626581517860  -15.21850999542069  -20.74263432852673
C           2.03061749239960  -14.38665711805436  -20.18714393060885
C           1.61647238341299  -13.25868284803118  -19.47155901890370
C           2.56310162671749  -12.31554155376404  -18.89444537199281
N           3.85913476938293  -12.52114262078034  -19.11796078048888
C           4.72122109457060  -11.66057657381795  -18.62569014465992
C           4.31960229794489  -10.54339619735210  -17.87587370315481
N           5.16226334299020   -9.56993995962679  -17.41106377964451
C           6.59151363918579   -9.75296188156926  -17.25115383293302
C           7.29439494594106   -9.95217407510520  -18.60978326651208
N           6.71977432652740   -9.27448189312365  -19.62173088813742
O           8.30757780028570  -10.59931949413856  -18.72407296324755
C           6.94657056427541  -10.86660216012866  -16.25352666597188
C           6.56988986635210  -10.37954134526452  -14.86030107426895
S           6.65720395417322   -8.54536335388993  -14.87141801927624
C           7.16674435265118   -8.48411937335082  -16.62195594581188
C           2.93113150882141  -10.43695461044446  -17.68652350949314
N           2.07599074197464  -11.29566370258620  -18.18617438172505
C           0.23284844157571  -13.09063100306809  -19.36192416118130
N          -0.62233623413439  -13.92109070074856  -19.91933046156323
C          -2.44819557596219  -15.66978336373368  -21.16113238067331
N          -3.30117361752155  -16.44909471248640  -21.79826441754471
C          -3.38186249680891  -18.37638622166652  -24.78264177158885
H          -3.59341392017434  -14.30456727030671  -23.95408474141018
H          -4.73576134662492  -15.53860383355773  -23.56628083559018
H          -4.18114836608826  -18.32886716125178  -27.24771638606151
H          -3.35507918820993  -16.90167327405234  -27.32357300564637
H          -6.09872634403281  -18.20499289998994  -25.48141822190122
H          -6.17931315171787  -16.47338430503344  -25.11795466359714
H          -3.68311343683949  -19.31544205089877  -22.84806894139054
H           0.39879528252444  -17.14502538045799  -22.17315951544586
H           3.08180401700660  -14.60981686103039  -20.30908135391247
H           5.76230842771985  -11.86711866029529  -18.83691929578464
H           4.75469149064837   -8.95778719320097  -16.71352026274852
H           7.11173604068792   -9.35684355620017  -20.54520122026782
H           5.84276225579102   -8.79904922086111  -19.50031629478866
H           8.01840290424843  -11.05310857379060  -16.33026683170533
H           6.42150267551735  -11.79210187891606  -16.49070393496119
H           7.24518570404247  -10.75336788358380  -14.09397177621105
H           5.54788273559200  -10.64956885632882  -14.59406861705479
H           8.25512618934177   -8.48348451941017  -16.67957192270719
H           6.77554435265515   -7.57245099873571  -17.06948131596964
H           2.51147788098198   -9.62050649745890  -17.10978450068071
H          -0.18214883511624  -12.25646140633642  -18.81249490857293
H          -2.86792177863569  -14.87390540652799  -20.56122301688076
H          -3.69125614971827  -19.33607157851094  -25.20487408985837
H          -2.30591453893811  -18.25900013183992  -24.91806934110684
