72
 SCF done       -136.650642656507          0.000437560078
N           7.41619082486082  -18.28388502463277   -1.09384421973968
C           7.45463497964209  -16.92297431939812   -1.39078906972095
C           8.53322133305233  -16.10637442838142   -1.25875449637842
S           8.19716147404318  -14.49561707650288   -1.76939461263629
C           6.58313121253259  -14.91069573646345   -2.17621620450184
C           6.32333717282261  -16.23282421235871   -1.94785296991085
N           5.15066308187649  -16.91089559537247   -2.23504199074702
C           3.99485275606866  -16.35032099261900   -2.63546811271597
C           2.91872055754108  -17.05483999068193   -3.09612726653326
C           1.68113309536239  -16.51615639265966   -3.49296096915131
C           1.20475508549727  -15.23183278949886   -3.35068505425209
C          -0.04351393631246  -14.74315959963359   -3.80518638080761
C          -0.29794026161318  -13.43511191978340   -3.49868418003831
C           0.73379211601970  -12.81383903266726   -2.77125373355637
S           2.04549570353235  -13.93758951844406   -2.51155285868001
C           0.86661782254541  -11.53611099983491   -2.25028937648559
C           0.06645738848155  -10.38304146323998   -2.32550071787539
C           0.58809147465507   -9.30632967130507   -1.66022776311826
C           1.82291458765573   -9.55531895101741   -1.01659468648411
S           2.29905448540240  -11.21165414971669   -1.29438500264154
C           2.60021756179640   -8.69321312377089   -0.27211199117761
C           3.79867158369894   -9.05131968773204    0.35426779309379
S           4.44668254793186  -10.68142205712140    0.33356702679553
C           5.86096360209258  -10.29768588529109    1.28686154189185
C           5.83561304161262   -8.93912189906311    1.60573316115691
C           4.68936525351855   -8.27241581988889    1.08957100932332
O           4.69716831730031   -6.96743137612369    1.42789167220504
C           5.83076752678683   -6.79221694244869    2.15543176697863
N           6.11039147610569   -5.50304773201955    2.65186305325350
O           7.13529083575868   -5.38356595366160    3.30184739872883
O           5.32716231457620   -4.60956481089231    2.40480085442829
C           6.56330127929693   -7.94535146194788    2.30127398814945
C           6.76830746470488  -11.33769340381179    1.57490685630518
S           6.30526825303016  -12.96062323778465    1.15616484640682
C           7.82643197617912  -13.61259953290714    1.73836211694668
C           7.99470699576900  -15.04124342551800    1.86083621657679
O           8.96041218967955  -15.58148320846120    2.34947326166968
O           6.96242981649818  -15.80895472113920    1.41405082565572
C           8.66401360782856  -12.57650507244780    2.16471000027939
C           8.03579622002395  -11.31098622512131    2.10666607537787
N           9.94788622016222  -12.69870965458790    2.59753069412178
C          10.88822023446136  -13.62829979655454    2.18524237873078
C          10.92127514649901  -14.23249855481863    0.96508719212815
S          12.30048528749961  -15.23165302552077    0.77336896682373
C          12.86226911804079  -14.82766798850475    2.34763681827431
C          12.01930467788416  -13.97671244427347    2.99544485021603
N          12.25961926106990  -13.41523929203453    4.24843127440441
C          11.33530213742822  -13.46894604728537    5.29195828650817
C          10.14743325507168  -14.05686823253725    5.26785390993622
H           8.26841360869957  -18.59016234334432   -0.64324547654487
H           6.61705931022974  -18.54124210879096   -0.52723689377770
H           9.50140656457309  -16.35457987261359   -0.87345036579761
H           5.93698741348521  -14.15773429770286   -2.57765486944654
H           5.22816635422798  -17.92066689891834   -2.23931053599551
H           3.97657203643468  -15.27497288149276   -2.58310227839694
H           3.02401933300393  -18.12795178469672   -3.19566250041333
H           0.99492794314326  -17.20805927175451   -3.96553049322393
H          -0.72401418602053  -15.37561823436767   -4.34876809000430
H          -1.20047892529047  -12.91347613002375   -3.76299573852407
H          -0.86261139497587  -10.36628680593033   -2.86760608779211
H           0.11821592103744   -8.33982328644168   -1.61166472735907
H           2.27659156609397   -7.66876465699747   -0.15548965654969
H           7.48419844712973   -8.03216450828996    2.83880495995010
H           6.22960268792796  -15.27234349133998    1.08570481493479
H           8.52194761454233  -10.40264036847176    2.41295046283430
H          10.29160270402653  -11.98324316751099    3.22135781290367
H          10.21829163078207  -14.12788107568380    0.16449990826280
H          13.78380963661539  -15.24174561692219    2.70470458556257
H          13.22305036539798  -13.48699828076010    4.54650968373809
H          11.68142775597109  -12.93283410961026    6.16749099940596
H           9.79839621908522  -14.62430104410486    4.42362944688236
H           9.49126923785481  -13.98685728677331    6.11600286027089
