84
 SCF done       -136.107526596273          0.000400558893
C           4.55533257059938    4.18627095467237   -1.08871742808451
C           4.32071757139534    3.03603362825441   -0.38327975315535
C           3.06493298335475    2.78672077768573    0.18185350914440
C           2.02724496616889    3.68287249053230    0.04576170355191
C           2.23281754399484    4.86422386948500   -0.71130326093797
C           3.51563065229660    5.11734076053138   -1.26621113167072
N           3.74425015247280    6.25139538210959   -1.96620983749873
C           2.75762062572558    7.09063396851943   -2.13507192977374
C           1.45166836237148    6.80131336501042   -1.63376250621471
N           1.21824436999008    5.71840558008010   -0.94492646955456
C           0.29493099789114    7.70041110692845   -1.91047478207735
C           3.03154303223910    8.34351577007274   -2.89783565797792
C           0.73021337761332    3.41985054207741    0.67544429263733
N           0.41705935190494    2.14018597964309    0.90290602394105
C          -0.76088439864906    1.90566453252033    1.45565452910680
C          -1.64240107289092    2.91604677442860    1.79232751247445
C          -1.21403745099637    4.23113164248210    1.54723098243089
N          -0.02136289724355    4.45781756717567    0.99318780797858
C          -2.01342929174751    5.36828280270171    1.91793859036482
C          -1.66687610501778    6.64861432616492    1.62907561324712
C          -2.38186747943101    7.75552815667769    2.12698316556512
C          -2.05786945751111    9.07663995459834    1.96447159155969
C          -2.64354158348738   10.15110655364931    2.68788957888645
C          -2.05664841104124   11.35562970875299    2.47036724773027
C          -1.01162398563922   11.32558915309347    1.51249928155161
S          -0.79616446123001    9.69415229862799    0.90663693968881
C          -0.24272423531994   12.39702949842654    1.11021180947370
C          -0.17803735977141   13.65326907959522    1.76857883332585
C           0.73425722847614   14.50230126893183    1.23536572923489
C           1.40266913637758   13.98749504742811    0.08853992399702
S           0.82282027160706   12.37862724258733   -0.28946234160668
C           2.38206249380920   14.59978425762677   -0.63029300878375
C           2.91315254951802   14.01992946795962   -1.82556729315261
N           3.99468048659769   14.58369660364266   -2.37958003930126
C           4.45347020452300   14.02174081260433   -3.48063832883052
C           3.83448204503824   12.93862282060463   -4.08528536652338
C           2.67491506164714   12.44539699270626   -3.46983587229828
N           2.25783271730103   12.97007847502254   -2.32080771520183
C           1.87680427477138   11.40603476192291   -4.08749754544915
C           0.62918556876108   11.14010875172024   -3.67135893589608
C          -0.28163926094128   10.15426799401058   -4.20011301884011
C          -0.01042429347457    9.33294841517560   -5.28016458919690
C          -0.91498907687287    8.35516604160505   -5.70602562999811
C          -2.10538412366005    8.16226785462593   -5.05456533881492
C          -2.43324082535330    8.97950117501003   -3.95698439491937
C          -1.53755462741686    9.99814094389613   -3.54289146058886
N          -1.88010446758739   10.83020351699760   -2.53955334357596
C          -3.02736249623002   10.65492867763481   -1.94039457670245
C          -3.88891993813702    9.57451535459758   -2.30017476266053
N          -3.59428720167949    8.78148652715418   -3.29493388408403
C          -5.15921137858447    9.31560800095922   -1.56060283318514
C          -3.41364042778746   11.63945312767790   -0.88762958999890
H           5.52055984341977    4.40875034765429   -1.51685740501679
H           5.11169985639576    2.31292271600144   -0.24772435888784
H           2.89421026820343    1.88325210427881    0.74693357188567
H           0.50053743702784    8.71545920857495   -1.57509046399428
H          -0.58631278489816    7.31938006856246   -1.40217574481823
H           0.09971759886509    7.73079960577381   -2.98108073279835
H           4.07228014101068    8.35627819364857   -3.20913146545485
H           2.82554888354768    9.21685824520701   -2.28041370259803
H           2.38568526093373    8.39650877051096   -3.77255868711490
H          -0.99736972896025    0.86261187236743    1.63141235072867
H          -2.60540230163923    2.70859483916270    2.23136138045757
H          -2.91693313113343    5.16156491866843    2.47776940958325
H          -0.77284052865037    6.81697864408676    1.04421684702756
H          -3.22495269540104    7.54693860607857    2.77625363558789
H          -3.45511158241214    9.98300804834632    3.37445750576720
H          -2.35990730671772   12.26899661388048    2.94968954012318
H          -0.76658959284570   13.87337483695632    2.64161764649920
H           0.95621887324256   15.48463024255349    1.61331737545955
H           2.77998004045497   15.55255084611441   -0.31992804480536
H           5.34415957227845   14.47170351321622   -3.90236273754129
H           4.20677442203494   12.51243128200149   -5.00266953812051
H           2.33099357294732   10.90297688763158   -4.92974941061433
H           0.24227734235998   11.70203457206727   -2.83346622592312
H           0.92199230619855    9.44185232414569   -5.81374808371828
H          -0.65789059272289    7.73713017862332   -6.55401845274449
H          -2.80499879701329    7.39868227398559   -5.35530866802031
H          -4.94727740132378    9.11339419762068   -0.51128960574652
H          -5.66078081739574    8.45730206405302   -1.99802134591427
H          -5.81524846317297   10.18325107808171   -1.61229277061110
H          -2.60607130621362   12.35242997961779   -0.74817034066516
H          -3.62228849258671   11.13596306534329    0.05466418943697
H          -4.31437218418666   12.17361949832802   -1.18865770667095
