74
 SCF done       -113.586449549712          0.000565158943
C          17.92211909757428    1.80827887454109    3.25124494239500
C          17.04993446733302    2.29007010308478    4.13670661195581
C          15.64258083460668    2.00859111807029    4.11240343686115
C          14.77378912650892    2.51366302061281    5.01048920920978
C          13.35773320769445    2.29969295340816    5.06201536987350
C          12.64824254276963    1.52182781635246    4.22276216949352
N          11.29713928966306    1.33687905573765    4.33103981675675
C          10.49250789126650    0.69449357450466    3.41203859456160
C          10.86664256743095    0.24689808584744    2.17874581031916
S           9.56437885453505   -0.47924895850374    1.32074880201545
C           8.48929541081684   -0.19292592690912    2.63003893652493
C           9.10187714921805    0.42986606338119    3.67872613553766
N           8.50248474761260    0.78905776494417    4.87077941157511
C           7.15629072019483    0.84822957693373    5.09267712800041
C           6.60445736478928    1.01400624403504    6.31676035197876
C           5.21288273306042    1.12786145751996    6.52875815026658
C           4.61826707592326    1.28688689250179    7.74744042548386
C           3.22940902985838    1.41467792824552    8.01044828167165
C           2.91423786486655    1.56720727086629    9.32284025664010
C           4.03193180743808    1.56712754573917   10.19232786224774
S           5.51108909894154    1.36610272159265    9.26816459583484
C           4.03435138165313    1.70073705709814   11.56044924952476
C           2.91832738436191    1.88558508378585   12.41315984474716
C           3.22633555783876    1.99608747881174   13.73005353163644
C           4.61839720543035    1.89861605470967   14.01584703294581
S           5.51395131976668    1.66108020559121   12.50874088577767
C           5.26821596737590    1.96482974141768   15.20660181562885
N           4.65258440924995    2.22747584023098   16.39823398716560
C           5.23203813956315    2.08823296228201   17.64450254027004
C           6.37963183258829    1.40738348253648   17.93073327288724
S           6.76402633397894    1.45562560169049   19.60485308268420
C           5.37110487801575    2.40806527736005   19.94139949069125
C           4.64700713697288    2.68268933920792   18.81854388095187
N           3.49448630623632    3.43883184712189   18.74245562860269
C           2.78091121671838    3.93235405159553   19.80043128096660
C           1.78079129678249    4.82572503078459   19.66805803416766
C           1.01794842768259    5.32012118332603   20.76410785288043
C           0.02352689778473    6.22883365703918   20.64641219145881
C          -0.72723327671769    6.73232975599028   21.74681691941353
C          -1.71643429519943    7.64210688343849   21.62166462630802
C          -2.50905141446826    8.19720623240832   22.68924271545795
C          -2.38907036965210    7.93485991406816   23.99096140165961
H          18.97150422701338    2.04177856207995    3.29736051276802
H          17.60943327090439    1.16243084073119    2.44706491973198
H          17.39526064075068    2.93806490147869    4.93297676035044
H          15.29989956411426    1.35901008958137    3.31923915393148
H          15.16765977734003    3.16257333584293    5.78349375831851
H          12.82618495575646    2.82047168897323    5.84960990870308
H          13.11878572841335    0.97146658239445    3.42548101027810
H          10.83148934381528    1.85757097438740    5.06112192715440
H          11.82343155217884    0.31303340788244    1.70478151027542
H           7.47333544910292   -0.51986742745754    2.55276024640242
H           9.09417340050509    0.85488306448485    5.68732667221218
H           6.54129055506128    0.79203572406562    4.20788401972099
H           7.24200662978773    1.06457501242315    7.19043040051278
H           4.56600758660562    1.08719784348112    5.66216353759381
H           2.51004554496664    1.39008246643954    7.21028846436419
H           1.91096677918212    1.67777706686134    9.69451982946551
H           1.91662027580626    1.93225713510343   12.02426247042181
H           2.48850652844863    2.13325545961123   14.50274436152069
H           6.33925310086714    1.85281183017869   15.24855470374808
H           3.65250662253329    2.36271184124312   16.37151862392572
H           7.01323967978777    0.86306629362572   17.26197817390158
H           5.18817539679269    2.72166483922834   20.94779870569072
H           3.26481371723215    3.82352710974143   17.83660868219580
H           3.05013388041889    3.53248342409745   20.76540982049012
H           1.53518803007938    5.20557082303585   18.68383118933479
H           1.27042258317452    4.93663988742327   21.74465854352909
H          -0.22844051862347    6.61065252978822   19.66462959959424
H          -0.46698543266264    6.34779462506529   22.72347112087995
H          -1.95291641273466    8.00324793014676   20.62788593104101
H          -3.27099137105368    8.90025777918291   22.37407733025540
H          -1.65269287002752    7.25197458811561   24.37698896244782
H          -3.03022543356306    8.40175990772887   24.71844358419495
