116
 SCF done       -176.897111426361          0.000402499914
N           1.06263088846900   -2.06295910980276    3.42829753428688
C           1.14721198073359   -0.72691026134039    2.85016546612843
C          -0.03375991911909    0.17064941987516    3.21265697568033
C           0.00579378005981    1.49017150304088    2.44552905926771
N          -1.20768335992989    2.23121700297727    2.74866929691330
S          -2.32451404539299    1.84967449618962    1.49792107905455
N          -1.11545030142779    1.81503894743243    0.27773947261249
C           0.07315868566312    1.24394286472651    0.89014059414817
C           0.11527022611689   -0.24754781908145    0.56511238792496
C           1.24195567587371   -0.95235542205363    1.31117954300924
N           1.15483652359260   -2.38422152075931    1.02951114865300
S           0.16562151483936   -3.03070937717028    2.28442712954620
N           2.41448027423668   -2.96723126583770    0.90789341524989
C           2.45059820445749   -4.14318466550380    0.15647918393005
C           1.39081459694243   -4.66545939785701   -0.51822334066150
S           1.78976246963061   -6.11811401343815   -1.34635147327250
C           3.41230428800308   -6.02830019419405   -0.78841618139877
C           3.64024159073936   -4.93012690903279   -0.00950733122738
N           4.87002591832350   -4.65449401292430    0.56533678875250
C           5.36561540958218   -3.41144949625760    0.84642402436185
C           6.60478595961431   -3.19443011714543    1.31894601278705
C           7.15336071371835   -1.90802874848260    1.67891382053168
C           8.53346475773897   -1.80607910858645    1.91463336884349
C           9.08524490523398   -0.59786840048933    2.25967964032856
C           8.27722934091765    0.54183719881556    2.40309302004530
C           6.90899799468487    0.45444634339232    2.18553164256919
C           6.36259058117559   -0.75964096929071    1.82551773050058
C           9.11865203839338    1.66122668342186    2.75413121733065
C          10.45460624102331    1.22070985791202    2.81767020021505
C          10.53057203226940   -0.27061120428733    2.57349740451748
C          11.46710781415928   -0.62095346312925    1.40823422368298
C          11.03256655533657    0.03365472236875    0.10180568470343
C          10.90100659467822   -1.04725035538888    3.85823613120453
C          12.26400043072756   -0.73112314825329    4.45957830910938
C          11.46584530744460    2.11968081497080    3.04171779084650
C          11.17032336484204    3.47834436944279    3.26844906838659
C           9.82703893480594    3.88772379252555    3.24096168683493
C           8.81011154995436    2.99755813114631    2.97426348401834
C          12.25559556229775    4.38414757176176    3.50774924893737
C          12.16350460059119    5.69827974259122    3.84679854801301
C          13.28005882361287    6.52457851769972    4.05945109191317
C          13.20990073910130    7.84289272442269    4.43516231824900
C          14.29228475118773    8.72665876774882    4.65768797083329
C          13.92434194997000    9.98187533904141    5.04013833266536
C          12.52918517449968   10.16452911977036    5.14579659085014
S          11.69273559597096    8.68423186350403    4.72883144416659
C          11.85382625773152   11.30771932324896    5.53328883183343
C          12.41044789458265   12.55216248658453    5.90102629757723
C          11.49370755004806   13.49130736431570    6.26640976447160
C          10.14981557860719   13.05314194829965    6.21096676325824
S          10.11251016909308   11.37778295831378    5.64853133429561
C           8.96674657544640   13.68289893603318    6.50312667178173
C           8.73448959043040   14.97858097981463    7.01708862618185
C           7.38906456347159   15.46711211729128    7.20698778319211
C           7.43562817732812   16.73844596601182    7.73189465773513
C           6.41166779856942   17.64290735242368    8.09969807002491
C           6.78680320013108   18.85232079963722    8.61179979436209
C           6.02453996305159   19.97309353807162    9.07544004140218
C           6.89306836616048   20.95821414720476    9.49730837283340
C           8.23351323062592   20.48059389916683    9.30999117162643
C           8.18774905902001   19.20605872538044    8.77454981927479
C           9.20838301340080   18.30888356296741    8.40885017193407
C           8.83628856613808   17.08986941519982    7.89361452798966
C           9.60206319410058   15.98315517336571    7.44254616760084
C           6.50182457754981   22.24001735736867   10.03111646747812
C           7.33209634638035   23.19828830652757   10.43433041263068
H           0.60849400351319   -2.07615687880208    4.33332300003445
H           2.07597627877162   -0.27707397005636    3.22534708031456
H          -0.01662123388777    0.38897212434149    4.28255447791782
H          -0.97365828923276   -0.33880959873465    2.99223614912031
H           0.87411811172988    2.07178317182730    2.77270779203565
H          -1.05202409548083    3.23362415037084    2.79927267656921
H          -0.95580798497832    2.74406672020956   -0.09944703075189
H           0.96173913170971    1.72968221699856    0.47316620955088
H           0.26137897323295   -0.37597406625063   -0.50712705429721
H          -0.84270100796006   -0.70090192750872    0.81906122948224
H           2.20569261257959   -0.60080355637643    0.93067823206361
H           2.91405654730800   -3.05440881784761    1.79614461388052
H           0.39539801901218   -4.27603232868374   -0.56409428800502
H           4.11438196745974   -6.78911596797427   -1.06447571480035
H           5.53369795480462   -5.41673806962523    0.56464709573279
H           4.68320805968498   -2.60180801116222    0.64743441447976
H           7.26930259777268   -4.04157220494211    1.43994905669884
H           9.15205721760836   -2.68626981908286    1.80703491387758
H           6.27896049244195    1.32496848883825    2.29883105814033
H           5.29658169375649   -0.82674885452103    1.66728785071013
H          11.48500413905759   -1.70594804098575    1.28322191323492
H          12.47930111548957   -0.29361357737735    1.64989497876474
H          10.03233744468186   -0.29124366487135   -0.17607864798021
H          11.71775968426575   -0.23363560576655   -0.69973708967536
H          11.02429520075992    1.11689399357025    0.20218905026190
H          10.85260301239406   -2.11376905241772    3.62559224178500
H          10.13180569666304   -0.83911910134338    4.60691287141685
H          13.06447356199149   -0.91620110185029    3.74793462395449
H          12.43131494347499   -1.36677786836079    5.32690022161050
H          12.31196540808549    0.30390197848440    4.78633751173269
H          12.50016794691401    1.80719814903023    3.03981353501365
H           9.58543309224622    4.92559518546246    3.40967981760685
H           7.78548369632583    3.33694366046745    2.93042445331153
H          13.24854324955469    3.95855032674702    3.41598732510286
H          11.19541964180647    6.16299464879956    3.97626541171565
H          14.26711189024119    6.10166956112034    3.92169116508582
H          15.31085323396601    8.40474443329222    4.52841154183493
H          14.61813165142637   10.77595945392981    5.25119206343431
H          13.47222958935910   12.72331609309998    5.88716679361281
H          11.75660021126503   14.48920111679061    6.56044525282475
H           8.07139240002113   13.09944831093510    6.32374481163857
H           6.50320311394433   14.90624604401655    6.96584198821321
H           5.37266328870032   17.37029273643261    7.97549795511851
H           4.95094679336264   20.02475790136116    9.08704464709968
H           9.12597054128175   21.02910817530022    9.54958576149901
H          10.24752674917498   18.57948994284728    8.53403812418024
H          10.67370700670493   15.95473788377088    7.46090389595124
H           5.43206181032918   22.39966177590878   10.09310481086698
H           8.40198779408198   23.08707254182504   10.39177714691424
H           6.96733465508141   24.13326612700014   10.82330755853431
