85
 SCF done       -153.838964660082          0.000306861728
N           3.63348110330545    1.54686146053042   -0.51747890996386
C           3.63746553046423    1.52443972156047    0.93410129927276
C           4.62273886550773    2.54819143020250    1.48206915926714
C           4.99244642991474    2.28957363910998    2.94333782677113
N           6.00662344096125    3.26010332305238    3.31201436205711
S           7.51093886802343    2.52784668062798    2.92627601842367
N           7.00805953019525    0.96496221122556    3.44695565576448
C           5.59193587842706    0.84404269679860    3.13961077260639
C           5.42504711504800   -0.00925880323364    1.88024633643464
C           3.97982348328741    0.07659296403797    1.39863507076298
N           3.75019009968991   -0.77229615084899    0.24510682974622
S           2.94887550424969    0.10612649664218   -1.05131878823822
C           3.72039492159622   -2.10908747627887    0.29825745032429
O           4.07400897825871   -2.75062639780206    1.43939668330416
C           3.40949349312397   -3.03353279805469   -0.67545692787461
C           2.95351794721697   -3.20457717704554   -2.04033168805949
O           2.66173139703968   -2.40446578689342   -2.89553063515529
N           2.90516907874044   -4.59606333974167   -2.19579120307317
C           3.27544480622928   -5.33542953013279   -1.07915758793193
O           3.29713645865227   -6.53911717517818   -1.01530095197789
C           3.60191981666526   -4.31298796937992   -0.08128927916601
C           4.01321846151237   -4.11629647137567    1.21324706020551
C           4.36415677211192   -5.04649662523034    2.22469382195822
C           4.73329621214101   -4.72673659903446    3.48417449092574
C           5.10663107767461   -5.72343565224702    4.44011295652967
C           5.44640616296788   -5.53809742353939    5.72624410792083
C           5.44275725166100   -4.22355726073319    6.44053173778677
C           5.81205826502831   -6.72850997374297    6.58455025385112
N           4.83499183804993   -6.98857852782231    7.61741694984408
C           3.62881416246063   -7.53709325099407    7.35847296588665
C           2.63333425511506   -7.67011235526824    8.27332360713581
C           1.40439678459956   -8.29295270903963    7.98726408181040
C           0.40562414719508   -8.50658761449156    8.89825464391960
C          -0.84905021876205   -9.12155844750754    8.66736037233458
C          -1.63588106995823   -9.22923788364278    9.77201664989943
C          -1.04976538719599   -8.70930025856604   10.95005460121082
S           0.53431772436602   -8.05695078036659   10.60027980025334
C          -1.57770123206187   -8.70174545778084   12.22458207621970
C          -2.83032580434474   -9.19452326465642   12.65179150282565
C          -3.05087952174673   -9.06284960879573   13.98774481682894
C          -1.98253948084694   -8.45931145560919   14.70067327130955
S          -0.68552544018905   -8.05183411859878   13.59277786906602
C          -1.94495936400878   -8.23035514982209   16.05003060423916
C          -0.89556445473340   -7.65254306071311   16.78556305660550
S           0.61989651647273   -7.07762560774911   16.10934997625047
C           1.25705654367055   -6.57830244243013   17.62986576381797
C           0.35664207203842   -6.83395262847506   18.63614275599662
C          -0.84535553730449   -7.43454089813876   18.15173757663415
O          -1.70924626631300   -7.67399446677683   19.16343680924088
C          -1.07385382254824   -7.23461493941467   20.28304760262696
N          -1.74933904096391   -7.35955056668363   21.51501757108631
O          -1.15774030044569   -6.95736150337041   22.50244128162316
O          -2.85901319293700   -7.85138039419868   21.51477402021779
C           0.17205833061963   -6.71728472740853   20.04019429614134
H           4.56413148569201    1.69342888863060   -0.90001987826249
H           2.61706857545150    1.76229025291014    1.25422102028877
H           4.20185940491558    3.54944224763979    1.39715134910635
H           5.54552791315025    2.53398914886517    0.89903344728363
H           4.11105471269334    2.42522250054915    3.57669926024556
H           5.96636264221402    3.52542621326447    4.29136597171346
H           7.20802876282143    0.83463064313225    4.43322137395737
H           5.08274574709521    0.34732702665462    3.97290247232341
H           5.68591279482450   -1.04084282328314    2.11485650406723
H           6.11167514377276    0.33909065555301    1.10887926158079
H           3.31286229953517   -0.22564833718068    2.21763396744458
H           2.61783947880309   -5.02997385552538   -3.06102554534151
H           4.31501536659351   -6.07858927049355    1.90704615331371
H           4.75211450405144   -3.68639585998397    3.77353069414487
H           5.12325429796417   -6.73402926281996    4.04987822843918
H           5.44729092551822   -3.38848045523493    5.74786631752835
H           6.31457146417563   -4.14213561773236    7.08865875734526
H           4.55209706284243   -4.14041580978875    7.06566935092033
H           6.77631920066179   -6.55522875582448    7.07146793853583
H           5.89828014224687   -7.62212169191011    5.95998761394351
H           4.94616845213053   -6.51758264014497    8.50207883084004
H           3.50492629997785   -7.91889617351683    6.35434099057553
H           2.78090821243259   -7.29873137192168    9.27898004208706
H           1.23320406251583   -8.63544511281382    6.97487498911722
H          -1.12664574805685   -9.46780344519322    7.68698156749770
H          -2.61550631557069   -9.67227262659626    9.77694991497431
H          -3.53182434094813   -9.63287857400613   11.96461602633714
H          -3.94454835590556   -9.38286137104346   14.49360424773121
H          -2.80617062338750   -8.52663602234814   16.63403311880980
H           2.23120705236074   -6.14049477003592   17.68356114794870
H           0.84000018943558   -6.31827962489244   20.77486442006628
