107
 SCF done       -187.704113200864          0.000302390378
C           1.77370708520646   -9.79213805135949    3.56512294956294
C           3.05156529866648   -9.37261711730849    3.89269998247236
C           3.99433707037700  -10.33623539249579    4.25820231898690
C           5.30970458422170   -9.93053135164982    4.59234975667083
N           6.37138318290705   -9.59611584907379    4.86067724078248
C           3.66301076250738  -11.70407128610971    4.29754656879509
C           4.63715350707994  -12.65785561726991    4.67603812349717
N           5.40961534616373  -13.44694273730931    4.98024394458250
C           2.37407386909656  -12.12225851841206    3.96049732117252
C           1.45319982880143  -11.16225791179262    3.60228866770977
C           0.04562589835561  -11.35213735457951    3.18216795370130
O          -0.50753971835076  -12.42395615796547    3.01652273532268
C          -0.47187577048323  -10.00917614790237    2.90356065124111
C           0.58140379899995   -9.04968777358670    3.15848446996020
C           0.46954894350783   -7.68282754166031    3.12502847597477
C           1.53400814491147   -6.79617194518251    3.38878149820989
N           2.36555255840096   -6.02978926718629    3.58548391492998
C          -0.72587555532166   -6.97926373825884    2.86603420510725
N          -1.66475855896298   -6.33963144927829    2.69791075242838
C          -1.65929367585604   -9.70581794531856    2.27388359383852
C          -2.84421607708820  -10.43932003470293    2.11839594513959
S          -3.81435775062006   -9.99436394639983    0.72355667754063
C          -5.06804419460606  -11.10170188159219    1.16691163481253
C          -4.77216257517609  -11.72945908322539    2.37308434380265
C          -3.52408593356072  -11.37973171146279    2.90398881080074
C          -3.05406269489437  -11.86721996110744    4.23054541886485
C          -4.01982118881339  -12.84794190140171    4.90075211512793
C          -5.49167498400932  -12.52632140133259    4.60753512405254
N          -5.93586778848756  -11.22148120046986    5.07206897256259
C          -5.72108831977714  -12.63088214597660    3.09634470052944
C          -6.20766955555426  -11.29621750288450    0.33972038067063
C          -6.45263141326870  -10.57126083137032   -0.77403054879829
C          -7.58663583815960  -10.77102766718358   -1.61932465450966
C          -7.86375772433472  -10.03032029190154   -2.70676650084276
C          -6.99921960180759   -8.89917180816657   -3.17500775199468
C          -9.09079008020092  -10.25693057567536   -3.55537150190260
N         -10.00246537926995  -11.23729195762159   -3.04116964661509
C         -10.48452620653299  -12.28558412188390   -3.72306106549637
C         -11.37643919963939  -13.17746129939524   -3.20385818393056
C         -11.94263638238848  -14.23782228572244   -3.92367874895211
C         -12.85134692685724  -15.11459264280122   -3.38074390036246
C         -13.58030640548227  -16.14127492340964   -4.02086272791584
C         -14.46318421316932  -16.79423424293049   -3.20877370963745
C         -14.45962593333970  -16.32891326931723   -1.87774337865836
S         -13.30653797432632  -15.03979106473456   -1.68206647200038
C         -15.23278823891197  -16.72074384294806   -0.79494949027284
C         -16.34097025095425  -17.58051380798967   -0.71039545665734
C         -16.91957242590960  -17.59870642442115    0.52924380456905
C         -16.30246188172602  -16.75528383300390    1.48097546086668
S         -14.93199058924194  -15.97226378200921    0.75612698730625
C         -16.66178169289032  -16.64092595655070    2.81981151330891
C         -16.08006448893292  -15.88135391482527    3.82322827966604
C         -15.15979130072992  -14.83764680803616    3.78104575372526
C         -14.24278669208216  -14.65773253849897    4.92821991184767
O         -14.30679181431860  -15.19430459408795    6.01487332921351
C         -13.19107380203214  -13.72985135628458    4.44733222926139
C         -12.02402940260179  -13.35525181167711    5.04263327633089
C         -11.12766282191404  -12.51590032434545    4.33703414634832
C         -11.47274451521269  -12.07401250850454    3.02841969113453
C         -10.56466329530289  -11.26293675317792    2.32172495225453
C          -9.37638267086900  -10.91994500955446    2.90304635348763
C          -9.01587824111728  -11.33724777333545    4.18895621299763
C          -9.89195864116015  -12.12407320062650    4.88777587641365
F          -8.49943687471183  -10.15671150342800    2.20592610658793
C         -12.70467412030553  -12.45849228669551    2.44732842910412
C         -13.54666757346703  -13.27506379377869    3.14690672995503
C         -14.83663542463141  -13.86476875180300    2.79293283263376
C         -15.64334106063427  -13.43588667444681    1.75348730807690
C         -16.96849602819745  -13.87333797431419    1.58736606991072
N         -18.05643214493835  -14.20837262770266    1.43103007915179
C         -15.25121532802419  -12.48545553856565    0.79800042888687
N         -14.96208511635900  -11.73931383966246   -0.02851960411473
H           3.34294961219519   -8.33464444547990    3.86939051023462
H           2.10636884265744  -13.16783611584944    3.98039683084328
H          -1.68049172465126   -8.75173821313822    1.75649949862339
H          -2.85794843661454  -11.00187759173209    4.87335030826893
H          -2.09678154330772  -12.37705895990210    4.09156263588550
H          -3.84381192328720  -12.84317043975133    5.97867765448830
H          -3.81784853266625  -13.85739054621758    4.53915776141637
H          -6.12284314057333  -13.26878834529672    5.11173554425067
H          -5.43120872774511  -10.48282307924842    4.59289882026042
H          -5.76562486247875  -11.12258069344854    6.06698174862428
H          -6.74948892203595  -12.35213360262331    2.86997266140363
H          -5.56938632037538  -13.66635212437266    2.78018451432582
H          -6.89550148931622  -12.07476242647341    0.63822168083434
H          -5.75790057430303   -9.78704604343664   -1.04010961652933
H          -8.24571541138222  -11.58260249798554   -1.34070017725499
H          -6.99065074759699   -8.09489874838786   -2.44056506645111
H          -7.36347657423030   -8.49699836731970   -4.11675512156002
H          -5.97216693110413   -9.22963701395703   -3.31699239964223
H          -8.77706038577618  -10.56672374266867   -4.55830989892453
H          -9.60865363060288   -9.29098278615385   -3.66024175541851
H         -10.36301452494211  -11.07729597728038   -2.11150829848252
H         -10.12377792686148  -12.39541182029751   -4.73721668048508
H         -11.70071964172056  -13.04966932034011   -2.17934591834868
H         -11.68118647538295  -14.36019867953274   -4.96644030036265
H         -13.44646937129717  -16.35634199126818   -5.06673351184312
H         -15.10972456144073  -17.59175430089715   -3.52814436743061
H         -16.70165872481870  -18.13687264803329   -1.55698417218580
H         -17.78972783007204  -18.17824577709066    0.78121051380905
H         -17.44724978789265  -17.31929512939089    3.12931534156463
H         -16.29471416965038  -16.21153127910787    4.83594163337250
H         -11.77370148394289  -13.70301777306075    6.03375977048516
H         -10.81230249011820  -10.91309361525722    1.33119172894910
H          -8.05615178561042  -11.04948868579615    4.59548364106977
H          -9.63763319871618  -12.46117860118674    5.88146180390974
H         -12.94214242613120  -12.11312048141475    1.45388101298504
