87
 SCF done       -178.135283245503          0.000799777046
C          -4.51161992018009   -5.65319225228855   -0.09857650192858
C          -4.20979809604517   -5.59342186628297   -1.45532758180574
C          -3.04843311396523   -4.88941894447564   -1.91851383750980
N          -2.75661536159583   -4.82681180491246   -3.23778940751665
C          -3.56398358507921   -5.42956590436247   -4.06762395293035
C          -4.70757328836389   -6.12546095829988   -3.61396950756943
N          -5.02305259862305   -6.20198424054944   -2.35506827186296
C          -2.16771609839722   -4.23294120935460   -1.02482489826620
C          -2.50917029881366   -4.25159823430680    0.32947303786257
C          -3.67994045718433   -4.97628870277193    0.78143710059371
N          -3.83516415978381   -4.86078815326881    2.11146216773781
S          -2.67596042393247   -3.94996542394690    2.71414776870693
N          -1.88189489966971   -3.65748513275490    1.35278491209164
N          -1.08986046927736   -3.63041162403736   -1.61904453223424
C           0.02034927107081   -3.02185297338808   -1.15114733837280
S           0.53521774939926   -3.10382530215869    0.49812890388102
C           2.01985892811872   -2.30728000168239    0.05559275792952
N           2.95073827342700   -2.05573658230784    1.06643112951792
O           3.98822864482196   -1.49492439242507    0.76104359434121
O           2.65440430976556   -2.42649632554416    2.19034602614717
C           2.09719032708579   -1.98185366108417   -1.26996510588184
C           0.95017486080245   -2.36578651120657   -1.99001196447383
C           0.80888734857727   -2.05133012200248   -3.38353384304180
C          -0.33997586422613   -2.03014797982856   -4.09468949205919
C          -0.44577164891073   -1.73104079759004   -5.48536558859286
O           0.66190065890539   -1.54993250644161   -6.25681777774047
C           0.29586239686328   -1.41443053283967   -7.52083186463294
C          -1.07433267857062   -1.50453121733667   -7.63252221082899
N          -1.84259521341817   -1.46357311207102   -8.80924815959940
O          -1.29165568610446   -1.16840279822191   -9.84633921974064
O          -3.03004833986344   -1.74475229800181   -8.69984361148265
C          -1.57762264159348   -1.69346628311571   -6.30404648811892
N          -2.89753035244970   -1.83135333124974   -5.98265355488188
C          -3.39722802925535   -1.64005285292365   -4.74083950912185
C          -4.56206346034448   -2.15411153158283   -4.25089490479911
C          -5.55391937546587   -2.97167716968294   -4.84868270037612
C          -6.47140273893988   -3.45375721801390   -3.96511102251628
C          -6.25175052187026   -3.05306438229274   -2.62659953038038
S          -4.89670794030929   -1.96196977632802   -2.52948897772943
C          -6.88908106484105   -3.48858369596731   -1.47894464168001
C          -7.91634004983507   -4.44162026670407   -1.34574461143587
C          -8.21334570243205   -4.74376887899412   -0.04693745077440
C          -7.42525412760912   -4.05673171653401    0.90010963876597
S          -6.34874785405118   -2.94739891610431    0.09614924959329
C          -7.41864181830421   -4.24064612176885    2.27353448580089
C          -6.48032300686522   -3.64735731964640    3.09897330600098
C          -6.31208295021860   -3.80583587181752    4.46499082788948
C          -4.99407613910598   -3.58102654434754    5.05667434325291
O          -4.00449996622610   -3.09732133557426    4.51408922692527
C          -5.06676806545432   -4.11241839567905    6.42708045967251
C          -4.08628492532714   -4.20577427659809    7.37142171437802
C          -4.38924337796093   -4.78749919132056    8.62396939846522
C          -5.70877549356120   -5.26506944319886    8.86923342784167
C          -6.00377579952232   -5.84808763000043   10.11571308148808
C          -5.02155333210502   -5.94095777869828   11.06304568201647
C          -3.71898247154734   -5.47612871801518   10.84223191503487
C          -3.41545393661621   -4.90813127513383    9.63556896319198
F          -5.30270029631406   -6.49781222528407   12.25607358704109
C          -6.70735398604653   -5.14806267044743    7.87138229959596
C          -6.39226320035040   -4.57625084222840    6.67095090809210
C          -7.20055666997946   -4.29332243135222    5.48309910167115
C          -8.57573486802354   -4.30769064314043    5.44729952108261
C          -9.35155342914851   -3.76115698262863    4.40661932930298
N         -10.03920100119193   -3.29090545090792    3.61564778608441
C          -9.38390090635895   -4.77736304225161    6.50031861582433
N         -10.09409266550580   -5.16692590266509    7.31463584647839
H          -5.37500929677170   -6.19613105980525    0.24523197327224
H          -3.31724627314371   -5.36891596778899   -5.11870719657534
H          -5.36773580603292   -6.62123247205286   -4.31270055411311
H          -1.12470453664043   -3.79890190523792   -2.62656217114620
H           2.93866344322999   -1.46647206254399   -1.69683502918189
H           1.72315836984016   -1.74962419292454   -3.87621999082020
H          -1.28209830647766   -2.24928006681963   -3.62386960058561
H           1.04929955183538   -1.27289969898853   -8.27019419690696
H          -3.50695720904421   -2.06857072986454   -6.76377774012845
H          -2.78498443889597   -1.05008074440206   -4.07481674719646
H          -5.55636613260612   -3.18903421136154   -5.90223169253108
H          -7.28342513441443   -4.10627505928212   -4.22943080733207
H          -8.39103636548599   -4.89366928138757   -2.19734329991816
H          -8.95854530426747   -5.45666514863123    0.25721353951397
H          -8.13401997112526   -4.94389038549494    2.67266052799267
H          -5.69693863727850   -3.07403733283465    2.61370890578758
H          -3.09100628592124   -3.83882705055342    7.16959040668583
H          -6.99747035099980   -6.21414907122093   10.32181628278942
H          -2.98546740676189   -5.57573848318423   11.62651761947855
H          -2.41821039132752   -4.54250746280703    9.44205640634021
H          -7.69540791989207   -5.52305593475657    8.08562131009295
