93
 SCF done       -174.860202766554          0.000379747224
C           2.44259527963207   -0.13255946809747    6.77646394845874
O           2.65411588926700   -1.32421617026494    6.79749277144843
N           3.16994640099897    0.72733427849258    5.95981619026413
C           3.61215011385869    2.01386870696161    6.19880595283900
N           4.40127404478957    2.42965392028376    5.26926909893090
C           4.50634461854441    1.40993547898193    4.36405240197084
C           3.78034603681342    0.34242306722105    4.77936559374330
N           1.48935093438071    0.45817823868780    7.57565292786701
C           0.89967828650506    1.72588305651579    7.52631803974934
C           0.03437623952307    1.78869584218226    8.56424081398439
N           0.04787782019992    0.62052822935784    9.27804547220142
C           0.88502251373119   -0.16425778952501    8.67109618003173
N           1.17177433608579   -1.42699704429260    9.04534650297816
C           0.59902631617258   -1.98711300435155   10.14886430043755
S          -0.43308618364549   -1.04181349017308   11.15642457958859
C          -0.59327170574319   -2.41491875700629   12.21768818933328
N          -1.45174104919374   -2.32688581345396   13.31420849779468
O          -1.54192580577080   -3.29917079273672   14.04508028469287
O          -2.06979455214665   -1.28562570149851   13.45422890535797
C           0.12071458418136   -3.51071610449229   11.81038207116197
C           0.80457347995335   -3.29051760556914   10.60163400412442
C           1.55092866829875   -4.34149115785209    9.94691392211114
C           1.74314007883918   -4.49624537679846    8.62734337304883
C           2.38949072823541   -5.65255135517595    8.04598333345174
C           3.45162899866245   -6.32038230199268    8.51382700635423
C           4.28131465826149   -5.91080185748328    9.68861017487871
C           3.80317225019981   -7.66631950821645    7.92480142282273
N           3.15420702728450   -8.66759571169825    8.75420131721376
C           3.72397564942514   -9.16358997108108    9.87125610122386
C           3.01426760400384   -9.51756628150762   10.97914406997898
C           3.54897212781615  -10.14626525788658   12.11385044151923
C           2.84398421518295  -10.29363471359631   13.28363663846241
C           3.20042736478891  -11.01422733991662   14.44573166946418
C           2.25648946842355  -10.99067640948703   15.43082219395897
C           1.12118995367500  -10.21481229726671   15.11219703885004
S           1.26839163571975   -9.54025713842254   13.51495010387412
C          -0.01426528486151   -9.97437183710485   15.86955776877294
C          -0.46381560206405  -10.60210881883609   17.04488339469354
C          -1.71366840393963  -10.20454612805728   17.42579459229059
C          -2.31319525711966   -9.24406284634787   16.57671839094816
S          -1.20331088194610   -8.81798072557503   15.30879024572507
C          -3.56506709616922   -8.68065384467635   16.78848055285752
C          -4.26858040873113   -7.72382229354649   16.07104474751609
C          -4.09942358009129   -7.15804316278640   14.81392743102718
C          -4.69247713252638   -5.82075650294913   14.57250257094812
O          -5.48099349389817   -5.23241903932377   15.27908455570592
C          -4.11043873484999   -5.35620534269733   13.29026828328017
C          -4.24548010136055   -4.15447496791071   12.66282429432180
C          -3.55332395090137   -3.93383533751078   11.44742580215621
C          -2.72488070885846   -4.96538977254510   10.92021257577993
C          -2.00809373063163   -4.72653439022541    9.73174536194757
C          -2.11785678948699   -3.52445457175190    9.09303578855531
C          -2.95112126557391   -2.51313291005904    9.60028841765084
C          -3.65361466498542   -2.71062471312555   10.75719729851876
F          -3.04008898818310   -1.34731774347224    8.93583366772021
F          -1.40008109080057   -3.28788916102110    7.97333229513023
C          -2.61975688875947   -6.20786609854711   11.58808010920928
C          -3.31208386085134   -6.40215518741878   12.75005051607136
C          -3.42453934536742   -7.56649595203171   13.62949341233451
C          -3.10834955338873   -8.86408263439938   13.26218348291988
C          -3.55597885815488   -9.98448003940448   13.98470770986693
N          -3.93031008042755  -10.91637777760909   14.54303567432440
C          -2.39896150141052   -9.19603654558961   12.09780955140697
N          -1.78350569330352   -9.50833422436176   11.17721145405938
H           3.36680585704776    2.56270118843470    7.08523320957591
H           5.10377188525472    1.52064254295911    3.48252033500262
H           3.61509933318877   -0.62967073935909    4.36507603066212
H           1.10688407406872    2.41938784188389    6.74018069512271
H          -0.61063280776574    2.59106293885634    8.85700072187831
H           1.81398141952016   -1.96453205007036    8.46697289306862
H           0.11994475945132   -4.44136646095780   12.34884227906336
H           1.88188512380004   -5.12176410227912   10.61837655802812
H           1.29013171570498   -3.81784841230994    7.91722739374855
H           1.93217575160149   -6.00094420105306    7.12664624098886
H           4.11273561105361   -4.86843699613698    9.94281062880791
H           5.33760476820155   -6.05029088183810    9.45935706112628
H           4.05187761996317   -6.52434110851757   10.56179226725905
H           4.87902831367713   -7.84952795953514    7.93436755035292
H           3.42881586745133   -7.76585497318945    6.90319758009202
H           2.14759242755285   -8.55854566505179    8.80290298266885
H           4.79839631510648   -9.28817189623837    9.83234266981866
H           1.95507743205799   -9.29194413109796   11.00178209267468
H           4.55692352277672  -10.53707993269395   12.07297849990772
H           4.13300519783235  -11.54708802731788   14.51132268892174
H           2.35064615798181  -11.49384798350305   16.37630672157619
H           0.11628829132382  -11.35255074049977   17.55135355768908
H          -2.23785633583673  -10.59518098921292   18.27962471334968
H          -4.02624189108771   -8.99246855066695   17.71841535246759
H          -5.07544481348523   -7.24965489148724   16.62421516960383
H          -4.85801956763646   -3.37455780320227   13.08816097636760
H          -1.36558232294857   -5.49181176322235    9.32536522911688
H          -4.27310536276970   -1.91844825969594   11.14707582770669
H          -1.98651341651068   -6.97176582526878   11.16596658278423
