94
 SCF done       -212.470770398155          0.000272972542
C          -6.23656602508631  -13.09556582032246    3.51106943940082
C          -7.14401266989752  -13.23939005854972    4.55042467703908
F          -7.58734325855282  -14.46268207402845    4.85780944302607
C          -7.59991432494482  -12.14186513614412    5.28242828915831
F          -8.47951828775172  -12.32781773133044    6.27242086296131
C          -7.14695827707111  -10.86322422351995    4.99691727869388
C          -6.23579971041321  -10.72077268148316    3.96924119106889
C          -5.78041962260979  -11.82028636962962    3.22006948375862
C          -4.85374037182425  -11.34281593849743    2.19396431187135
C          -4.49351018796343  -12.03813323836584    1.06888946599128
C          -4.80611705672251  -13.39361228228937    0.84120974662363
N          -4.99350993888905  -14.50285454862782    0.61346286471620
C          -3.79396906331550  -11.47497867965148   -0.01599435435437
N          -3.22724133695413  -11.07062751925616   -0.92936132543140
C          -4.58160286719643   -9.95521369945673    2.47478082171087
C          -5.57456647345710   -9.48706760656079    3.48404821181030
O          -5.76068025426830   -8.35351431560609    3.85143124658382
C          -3.60238419883358   -9.09433836483594    2.07098471244818
C          -2.35140296379769   -9.34934146357762    1.46089165364447
C          -1.66922591078200   -8.28669284561511    0.80740592128873
C          -0.41949373111887   -8.48084334619991    0.13647532140198
N           0.16959125094779   -7.45850022118617   -0.48991487497083
C          -0.41831314878414   -6.28294582351266   -0.49916034830559
C          -1.67064175481703   -6.09099683879805    0.16249904845511
N          -2.25342834852962   -7.07822432974214    0.79716123245872
C          -2.28864519390107   -4.81301467426834    0.15160043986056
N          -2.75739044396225   -3.76934612414230    0.11635979492878
C           0.21067527854548   -5.20098120730097   -1.16495186462784
N           0.68742106095182   -4.30818145367768   -1.70066540856706
C           0.22183273375400   -9.76287022363610    0.06577805341203
C          -0.41740597461609  -10.79759669469424    0.80014182272488
C          -1.65904386718348  -10.58164995394896    1.50530043910231
N          -2.02425677269729  -11.65818728498501    2.20065747812362
S          -0.93321295426240  -12.82044544616095    1.99171859861674
N           0.05424270104909  -12.02245454952402    1.00894513800641
C           1.44088398453040   -9.85539043635855   -0.61049431913820
C           2.12684306816807  -10.97558261951255   -1.05233973259789
C           1.69047023945106  -12.29317510967810   -1.29821784677385
C           2.65664772581793  -13.10172133096538   -1.83039951462005
C           3.90154176026227  -12.46328835908776   -1.99363480166361
S           3.80380759848800  -10.79711716577043   -1.51893324479553
C           5.10121660023213  -13.02022054841349   -2.44165245914569
C           5.32224249164991  -14.31061930591677   -2.95076572920055
C           6.62947786743599  -14.52565508212035   -3.28760676578262
C           7.49209517568709  -13.43492964132665   -3.02378502058880
S           6.58260936973155  -12.09902338308696   -2.37439726435643
C           8.85702447037581  -13.50915270125133   -3.25731879034480
C           9.91178211416045  -12.64061257928439   -2.97562226815099
C           9.82446356330439  -11.37935823087420   -2.31329778483500
C          10.99852430206879  -10.64837153904936   -1.90564423547997
N          10.85763463814495   -9.44132389281549   -1.34235982766470
C           9.65656776983280   -8.98058759559219   -1.07572236569613
C           8.49795371771649   -9.73860593004746   -1.39390881219910
N           8.62413385721606  -10.88880086720603   -2.03429254849558
C           7.20729080898728   -9.26747422681582   -1.06255830757034
N           6.17566761495199   -8.85866107570729   -0.77497085906228
C           9.56535757138940   -7.71401858428586   -0.44216077472681
N           9.50860386749661   -6.70827123071264    0.10154537822661
C          12.30942205299667  -11.14809054684011   -2.10264501740054
C          12.40314745000664  -12.32832874472095   -2.87645924500067
C          11.23685108071436  -13.06149282743427   -3.29294032568228
N          11.55824578032239  -14.16685059628715   -3.95612185693663
S          13.16171986599643  -14.27470889033699   -4.05277431711954
N          13.52803587129140  -12.93211556462047   -3.25161902195412
C          13.48007452554239  -10.51425216189583   -1.61496668876765
C          13.62285727953741   -9.65374869917916   -0.56706267274436
C          14.82781622671659   -8.77842573891332   -0.50062947940783
O          15.84195132019286   -8.88678622417030   -1.14518845017651
C          14.47964374103988   -7.72672704282694    0.48228109124385
C          13.23503797640448   -8.02436907016596    1.06642085023381
C          12.67056528727923   -7.15852171426257    1.98866131402139
C          13.37870869578284   -6.01190957780531    2.31759990886117
C          14.62324056825513   -5.73208569690428    1.74905469696206
C          15.18763106766087   -6.58936136828892    0.81751073636827
F          15.27634686944879   -4.62074505141423    2.10463196385257
F          12.85795398926344   -5.15768866679261    3.20116373966500
C          12.76181761044055   -9.30288800556216    0.53996182924778
C          11.82959227475981  -10.10441679479892    1.14615440839346
C          11.52132484863415  -11.41138135444202    0.72353177573564
N          11.21712023145349  -12.47284917318531    0.40666300210745
C          11.06641308471991   -9.72524252568693    2.27011026860442
N          10.39162670645403   -9.47532734723453    3.16376667115888
H          -5.91038127460837  -13.97279488555385    2.97649880044609
H          -7.49706225229985  -10.01431204768927    5.56233241461546
H          -3.78892244752112   -8.04858733088514    2.29925619722012
H           1.90687726592337   -8.89808703628807   -0.81554787561950
H           0.67988588405532  -12.60180936184196   -1.11144654685271
H           2.50215802246391  -14.13316241336809   -2.09078993951531
H           4.53940757632269  -15.03788207819031   -3.06998258370589
H           7.00288476512237  -15.44529344344762   -3.70253141925896
H           9.18444823831627  -14.43783459606628   -3.71278053517469
H          14.38273058130638  -10.71292585304463   -2.18460430474471
H          11.70660836680287   -7.32633352133252    2.44076687500961
H          16.14570265777387   -6.36899984193517    0.37425281917632
