75
 SCF done       -145.785032761236          0.004746270486
C           2.02423910512841   -7.19909379537170   -1.20755057902927
N           3.07295411102698   -7.95092187564589   -1.19570923981768
C           4.06709847224132   -7.21693108909644   -0.64653301508098
C           3.62210120057111   -5.94408064815132   -0.33849443496576
N           2.26027074436485   -5.94768614510391   -0.66742521467148
C           1.29802638163421   -4.94359563866382   -0.56000358428302
O           1.54045548525778   -3.76278642838585   -0.56686822887874
N           0.00478880551545   -5.42240080139782   -0.42633809529383
C          -1.12873414261298   -4.70354268103957   -0.76538951125904
C          -2.18443089252540   -5.46041452882606   -0.37972266532334
N          -1.74518353729337   -6.60834985408019    0.22503398509385
C          -0.46003706871136   -6.57468716615062    0.18542267728784
C           4.43489643760054   -4.89381267554458    0.17452005068992
C           5.76476349125352   -5.00770848514031    0.55426869093331
C           6.22657207387885   -3.70775629447619    0.95790952888717
C           5.13280921490111   -2.76977260943368    0.79366985183296
O           5.04414389030700   -1.57732376703253    0.95181207785310
N           4.08079730389775   -3.58251261808975    0.34143053469517
C           7.53294263383816   -3.85014993831418    1.33214187201871
O           7.93047319028175   -5.14093800448746    1.19277232691597
C           6.86318497762560   -5.91919550050018    0.69701305296197
O           7.01074904790872   -7.09025433966051    0.47636033062991
S           8.66393993302572   -2.69715880036356    1.92323579660759
C          10.08996621956277   -3.75437213511709    2.08803147818847
C          10.35298100568324   -4.48109797231569    3.20600363363245
S          11.83578367262794   -5.33103240021027    3.08256157796221
C          12.10948556275392   -4.70725220257615    1.50516558473578
C          11.10525490484265   -3.88641313839488    1.09706968182638
S          11.06483682403338   -3.04263949933000   -0.46257495182821
C           9.58543353064688   -3.75976406109596   -1.07357957304902
C           8.61790331870430   -3.02615405837435   -1.64193204532999
C           7.40916903025860   -3.57716183105908   -2.15712556389662
S           7.28909578661381   -5.27122215645935   -2.51129104808474
C           5.64214114697601   -5.14703149497581   -3.02587799374217
C           5.17197462842844   -3.84076618835094   -2.86194438553372
C           6.19009028007128   -2.93825046327103   -2.39401522452160
C           5.85700085022457   -1.57364825663361   -2.16650371698920
C           6.80593963600273   -0.61223051040909   -1.75575787799606
N           7.53996579263516    0.21686790379986   -1.45755883195260
C           4.55754577082685   -1.14354216119771   -2.34442030620712
C           3.55266766181776   -2.03568327492650   -2.72152827756283
C           3.83615744507411   -3.36407087279304   -2.98099439669748
C           2.72331575927285   -4.19186119761170   -3.22942092657076
N           1.74106555662450   -4.77796529410947   -3.34417076636465
C           4.97272496957661   -6.30325254466395   -3.51533963618956
C           4.02992899489418   -6.28503830438732   -4.48611155747423
C           3.23690691506960   -7.41065755344153   -4.82843988405724
O           3.36223642482420   -8.57148808312553   -4.14731503725004
C           2.41919954499920   -9.42140585268233   -4.59928366095894
C           1.68156110868352   -8.80743518912966   -5.59454378584267
C           2.19868187944145   -7.51393601054586   -5.75065646272838
C           1.72010822774189   -6.44998121294031   -6.67306939719640
C           2.33726117139342  -10.71759586465335   -3.98583500810342
C           1.46264045560500  -11.66434522104929   -4.31669317268919
H           1.08330704019898   -7.47663915044633   -1.63723805832515
H           5.04915436365455   -7.62021374359082   -0.49384670843843
H          -1.05361660768094   -3.76007535897460   -1.26246691366188
H          -3.23212857416427   -5.26500033293432   -0.48230830103035
H           0.18918028888459   -7.31198946124828    0.61428064886765
H           3.16993012971101   -3.21393614677948    0.08597107620842
H           9.75741219194601   -4.55663134271928    4.09370991021743
H          12.99549474069199   -4.97321595096197    0.96472965392319
H           9.51372851283005   -4.83093736898871   -0.95287079500870
H           8.73059904199130   -1.95281135677644   -1.68512385200887
H           4.31009019803394   -0.11135006779105   -2.15299735237112
H           2.53220712173894   -1.69095855264386   -2.79305900330036
H           5.27066265695227   -7.25478205707585   -3.09626010839341
H           3.81851118963929   -5.38142656465347   -5.03830814803420
H           0.86581645378156   -9.23699272261100   -6.13894544530552
H           0.90098659264869   -6.82088189975545   -7.28199031476388
H           2.52351131561452   -6.11573783377431   -7.32821736211847
H           1.37131413603109   -5.59149893536852   -6.09896646754252
H           3.05478828716920  -10.87634214688748   -3.19327348063009
H           0.73861520746898  -11.52328026066468   -5.09968117304513
H           1.44789077684889  -12.61315795799232   -3.81078247924843
