106
 SCF done       -189.599830582509          0.000263043651
C           0.26307996940415    1.31543041833397    0.37558885493866
N          -0.20670139119850    0.18786479962813   -0.03748943257110
C           0.73311829950579   -0.74729814163000    0.26363883995559
C           1.79592423320182   -0.18239730520522    0.92099513982265
N           1.49821989129485    1.17770760951472    0.98005456178441
C           2.20906088620288    2.23898699743267    1.54964281181282
O           2.72407788390124    2.21544212264160    2.63195879903513
N           2.23240456772486    3.37707173203818    0.74910772169363
C           2.00597540561645    3.52140749916842   -0.60977222364442
C           2.22065023219507    4.83173129977719   -0.88639880547409
N           2.56699967135467    5.50837567024811    0.25295535868751
C           2.57987444764157    4.63546714752218    1.19934187172982
C           3.01799323421185   -0.83658949227080    1.36390229178060
C           3.56517213055186   -1.80872473895266    0.51398786610192
C           4.70359527369296   -2.48588268675805    0.88741398752709
C           5.31170562693817   -2.18094062482201    2.12011300985441
C           4.76319163037914   -1.23841013196513    2.97513949884732
C           3.61175335593834   -0.57443045497924    2.59800531653868
C           6.50749786444249   -2.97944078925777    2.26202394445512
C           6.63896995786816   -3.78918205173099    1.12282320406479
C           5.49689737623014   -3.54667028857211    0.15032104877196
C           6.12643452583430   -3.00323948625601   -1.15298319116985
C           5.18780358402427   -2.75592080532301   -2.32598551183980
C           4.73890090473693   -4.88184335363802   -0.04930401816859
C           3.24516437718344   -4.78987716897700   -0.33778009229989
C           7.70263208713622   -4.64891525088920    1.00194743924714
C           8.69494720580655   -4.67539699015508    1.99837181864402
C           8.53963648583890   -3.86397393660037    3.13432200729267
C           7.45226074169347   -3.03077049798659    3.27874524647063
C           9.85087879332211   -5.50936377499787    1.81113045475145
C          11.06158420305209   -5.27936976023286    2.38709351417176
C          12.24715761298902   -6.01943410144326    2.20549161463438
C          12.44067781851499   -7.26079598878607    1.64814737013366
C          13.71034508669070   -7.86942481598599    1.48726824159882
C          13.67245377328627   -9.12929188048396    0.97165581208198
C          12.36773816858340   -9.59878488058447    0.71160299332517
S          11.19170876662991   -8.36973055375559    1.10155296553883
C          12.01824055084841  -10.86011048363956    0.24739969964330
C          12.89897475636360  -11.89392864501339   -0.12938254983787
C          12.27703974580539  -13.04911418068732   -0.50755097418381
C          10.87103470907081  -12.99809154248753   -0.43812782529987
S          10.36685725723198  -11.39924111303273    0.09758106484299
C           9.88711185181003  -13.95084909558844   -0.62318262149370
C           9.92673162046480  -15.29043486286890   -1.03801787617676
C           8.72244599474234  -16.05432720096086   -0.86628103746726
C           8.62641329817638  -17.44722309382546   -1.22812511606290
N           7.50867320753004  -18.14007770539706   -0.92228561704702
C           6.50151657401822  -17.51985285407887   -0.35597009947757
C           6.56718679696531  -16.11877034476134   -0.08888656014325
N           7.66921237625727  -15.44018524959813   -0.33168211632511
C           5.45098626269935  -15.44262957889646    0.45607592081036
N           4.53548757238124  -14.91450980339063    0.89987321090133
C           5.32968780155132  -18.23173401954758   -0.00058197131586
N           4.35335430130573  -18.74763825737038    0.30484977382032
C           9.68479096983006  -18.12140015924045   -1.85701530521079
C          10.86698090176822  -17.38182066411459   -2.05180841964562
C          11.00016397567540  -16.00017127951960   -1.64446123693606
N          12.20086170504070  -15.52353847882290   -1.95817869242848
S          13.06954724111427  -16.67188449801564   -2.68012664042690
N          11.97350839992113  -17.84256631883201   -2.63374669011777
C           9.60370439177736  -19.49628157167547   -2.24497873254704
C          10.58971302861366  -20.45236347227156   -2.38283398850659
N          10.04145939866462  -21.65364423037586   -2.67730402636407
C           8.75733067280347  -21.47046625205542   -2.71539135303712
N           8.41256592986801  -20.17188099447009   -2.44443893410557
C           7.13635161137809  -19.60774000694193   -2.66768924553713
O           6.94032135721797  -18.70397537054905   -3.43602659675983
N           6.12239527045593  -20.35994529486683   -2.08786936012291
C           4.78688569791270  -20.31545523017348   -2.44488406728654
C           4.15387635838422  -21.20272404668455   -1.63866070201687
N           5.04831563302919  -21.78344405885166   -0.78030667159466
C           6.19876688105322  -21.27311313692848   -1.05695652978694
H          -0.24643843468387    2.25650414309936    0.31741180782676
H           0.57896698081775   -1.77829641306575    0.01718837004611
H           1.74727623341608    2.69788547172781   -1.24191077949793
H           2.15196817760939    5.34199426157067   -1.82558109332427
H           2.81068456708003    4.82119539491155    2.22854664803274
H           3.07664142599603   -1.99620533141021   -0.42779843860360
H           5.22439779341477   -1.02534846085394    3.92730843156245
H           3.17073184818850    0.14587406539626    3.26665505490161
H           6.88976401939972   -3.71770499922696   -1.47043971454382
H           6.63828203448799   -2.06860882959507   -0.90590215088962
H           4.68847538526775   -3.67113795814678   -2.63042362015264
H           5.76712333828918   -2.39312631133299   -3.17312908242176
H           4.44216441880112   -2.00388106460230   -2.08716153479251
H           4.86073153369217   -5.47065426500135    0.86383764526097
H           5.23012694504677   -5.42985034735617   -0.85590829767829
H           2.72021393078904   -4.32349743479879    0.49211264675923
H           2.84796910271179   -5.79486326305448   -0.46670185005008
H           3.03787358796793   -4.22779020332439   -1.24296371001595
H           7.81004147236838   -5.28675240548169    0.13640155890061
H           9.27402939498405   -3.91486182880694    3.92340675124440
H           7.34053813817747   -2.42335405497384    4.16414175391455
H           9.74728031537681   -6.31300934715341    1.09457329000169
H          11.17081909244324   -4.39854900850593    3.00600900132702
H          13.15224443569181   -5.54907904502567    2.57181772029939
H          14.61398224152881   -7.35398618541519    1.76108085821981
H          14.54280965113848   -9.73402161327704    0.79407610297851
H          13.96657509685869  -11.76869067946579   -0.11524037991129
H          12.78446806568016  -13.93721781630599   -0.83230770759346
H           8.88710668120363  -13.62948103014224   -0.35395020044629
H          11.64690389891078  -20.32747285192771   -2.27457505679156
H           8.03452211587542  -22.22501449197216   -2.95462958940769
H           4.44715748119805  -19.67262020375998   -3.22930978474274
H           3.11675667384273  -21.46541433841783   -1.60512062851008
H           7.11289357165895  -21.49959579837720   -0.54613246405672
