99
 SCF done       -171.578103464205          0.000241377679
C          -0.45087614884166   -0.25146591174771    3.77549184427685
N          -0.38272642746651    0.99618341530084    3.44172598867398
C           0.08425533451138    1.02803945863188    2.16850045196627
C           0.31750451812071   -0.24920784525233    1.70498731896138
N          -0.05042508190215   -1.08620646558009    2.75486915847551
C           0.35497977658453   -2.42148243996517    2.93651120165375
O           1.44176568039687   -2.82154741129241    2.62730812368421
N          -0.59417529319430   -3.20678593434848    3.57084555464814
C          -1.94864107167771   -2.98099968818878    3.74680116981834
C          -2.44101956612930   -4.10499398472967    4.32334476426229
N          -1.43953765238390   -5.02066567523153    4.51419584429928
C          -0.36554613552361   -4.47862537334133    4.05503285068915
C           0.73191949680484   -0.69251953303895    0.41454110317737
C           0.34926132420258   -1.84158389957046   -0.20287421180862
C           0.80512947703490   -2.32081770102628   -1.46578847957102
C           0.26345397639040   -3.50405120989016   -1.84795788322893
C          -0.66843253903678   -4.04282650276839   -0.92505864708421
S          -0.86308718726019   -2.95553838064976    0.43328611749221
C          -1.33850516718904   -5.24259008599639   -0.97959514777754
C          -1.27246466292965   -6.22967405698768   -1.99434520511752
C          -2.01279669436673   -7.33941918163569   -1.74014705845938
C          -2.71652860325270   -7.30418338936946   -0.50608252002644
S          -2.40383145308074   -5.77293542614446    0.30516421966315
C          -3.51712901781128   -8.23137023718622    0.10182967485716
C          -3.84882565572615   -9.53141964203994   -0.32128580471003
N          -4.57039088866339  -10.33405365465015    0.41666007737433
C          -4.74038067951305  -11.52557925426417   -0.15813231001124
C          -4.14108179517906  -11.69506267371579   -1.38709551788261
S          -3.31175740822224  -10.27443718004527   -1.85932585625730
C          -4.29592224894580  -13.06806094688902   -1.91382850326947
C          -5.44047407281974  -13.61204965158639   -0.99584204636105
C          -5.37899333178268  -12.79600331563609    0.32805201972154
C          -6.75209542515135  -12.63347475713145    1.00567306878047
C          -6.72563137399275  -11.75795885111539    2.25486856833919
C          -4.43655111277808  -13.47615400537022    1.35114519503567
C          -3.03797401820477  -13.84511223418041    0.87158079592746
N          -6.67335968143920  -13.51082590386515   -1.76463124068626
C          -6.40911777454143  -14.10985743341301   -3.02804027630362
S          -4.85973505830219  -13.27768811158242   -3.64755018799296
C          -7.31910483757847  -12.27318045758269   -1.85449228441088
C          -8.59041219456914  -12.15913741471022   -2.30495043558904
C          -9.52350621316513  -13.18310489137218   -2.65466661177999
C         -10.73964738084152  -12.72053642088307   -3.02654145372137
C         -10.85733103602758  -11.30401779574311   -3.00995327704527
S          -9.35006858523145  -10.57398558819427   -2.48443416486819
C         -11.95206169584903  -10.54738619750959   -3.33999085316688
C         -13.21921564525376  -10.97012072997225   -3.81813144499473
C         -14.07536320054007   -9.95786355160745   -4.09924729054463
C         -13.54520669555638   -8.65222855794392   -3.87635416741552
S         -11.91119478266968   -8.79634953979124   -3.22440556837171
C         -14.18508722343262   -7.47070779724426   -4.07503232192424
C         -13.62263267760689   -6.17069609659707   -3.89785541721585
C         -14.20235120025942   -5.00854116040023   -3.43944000902692
N         -13.27944261577058   -4.01656270121551   -3.34884021742726
C         -12.15404906055599   -4.52841990167212   -3.72600009587635
N         -12.27634194529575   -5.85857462291871   -4.06958722126090
C         -11.35776111577457   -6.56220767504614   -4.86642988585133
O         -11.65676223810728   -7.09517748681010   -5.89750972253044
N         -10.05855673480509   -6.51763619744908   -4.37885622304992
C          -8.94617579044732   -6.95792961589564   -5.07315910379969
C          -7.90425974432350   -6.86124436014365   -4.21217969918778
N          -8.33550509725394   -6.39335523051968   -2.99866184704125
C          -9.60450963324963   -6.20159234846886   -3.11476060459644
H          -0.74310786620170   -0.61781142945833    4.73940405984896
H           0.20569359982793    1.95535913056356    1.64658457329505
H          -2.42639740700762   -2.07995086571473    3.42506189785884
H          -3.44681166493394   -4.32687680354975    4.61686319094710
H           0.61075468247622   -4.91876678114079    4.04221255165040
H           1.37426845328168   -0.01446137328247   -0.12957007548998
H           1.53931442498918   -1.77342013991387   -2.02975746901376
H           0.51002196351619   -4.01624698925173   -2.76069589907933
H          -0.67541178860780   -6.09250392323182   -2.87813948974112
H          -2.06870322370582   -8.18173830891995   -2.40452851680913
H          -3.94453578294034   -7.97198458345907    1.06122912873767
H          -3.36447901251032  -13.63237490245746   -1.83788506048425
H          -5.30281514263711  -14.68018275404138   -0.79734751920980
H          -7.45846525948707  -12.19215241357595    0.30424289223258
H          -7.12504086429956  -13.63088700858038    1.25306126500458
H          -6.18946499615250  -10.83522249268529    2.05135410590113
H          -6.25402114293565  -12.26330174834054    3.09305223644491
H          -7.74466832337354  -11.51143057362749    2.54365511489228
H          -4.32696197368994  -12.78222753995608    2.18431423076072
H          -4.93320166656523  -14.37622704125935    1.72111588025274
H          -2.52910581985907  -12.98380612512373    0.44539343637984
H          -3.05744316378276  -14.64560247454619    0.13618005832546
H          -2.45273684307899  -14.19146600937151    1.72078667368676
H          -7.19530299414829  -13.93337410416867   -3.75488289149950
H          -6.19755801648092  -15.17593364119765   -2.93082143247561
H          -6.77384001691719  -11.37983915896784   -1.58134412663774
H          -9.26098969040982  -14.22341925038420   -2.58102424646175
H         -11.56683645659879  -13.34764104288927   -3.30779469648031
H         -13.45094497420301  -12.01255976872116   -3.94616928650044
H         -15.07205046693031  -10.08786840061080   -4.48213616385363
H         -15.23131342789355   -7.49774744332180   -4.34456984604839
H         -15.22116406216739   -4.84355428490089   -3.15341292392534
H         -11.22835418716329   -3.99472590316536   -3.80877083180424
H          -9.02437350534755   -7.27994853834690   -6.09007147623765
H          -6.87155960055478   -7.09688561333920   -4.37008468860533
H         -10.25025279588058   -5.86426828514781   -2.32972894980607
