82
 SCF done       -165.194840684094          0.000762116723
C           0.86436698573848   -5.15619790276646    3.08148712569954
N           1.28108088776232   -6.13958382906745    3.80603903628648
C           2.06245363911633   -6.91479538440598    3.00534135251614
C           2.11478474189438   -6.38407786803377    1.74424826905493
N           1.34962799583994   -5.21964645332812    1.79127891091711
C           0.87568225943240   -4.52496044616722    0.67562552323974
O           0.77161100824344   -5.02226752828962   -0.41297425335927
N           0.53283458423271   -3.20679442372243    0.93717392029378
C          -0.29886787624140   -2.44324974758837    0.13928468765933
C          -0.33174290893479   -1.21012699699685    0.70161661038383
N           0.47689150819858   -1.17420515804500    1.80563604978769
C           0.97284818395879   -2.35708547882651    1.93116331344585
C           2.72875121882332   -6.86927993485908    0.54006016351932
O           3.36249101223374   -6.03176829230798   -0.32181314585550
C           2.67407160615087   -8.12084866123518   -0.01228607811282
C           2.21250317636653   -9.50074812199636    0.20326197535622
O           1.77625645645481  -10.04726048411750    1.17944415860879
N           2.49974620800915  -10.12164491386922   -1.01133878876120
C           3.08329685878200   -9.31255714911535   -1.97916831844326
O           3.35219578945803   -9.65858395176906   -3.10268864780760
C           3.23727256286752   -8.01863273647422   -1.31057274339174
C           3.67225535321673   -6.71510850125781   -1.45880557708526
C           4.36531861647481   -6.06234598107812   -2.51612805153517
C           4.28908592278848   -6.50300461410255   -3.79677798399842
C           4.92442630551880   -5.90355213448258   -4.91113692551358
C           4.38221606871329   -5.96243351286205   -6.16655290016185
C           4.86169889972922   -5.40071360539857   -7.38151145059324
C           3.95600091343940   -5.40653629220002   -8.39791783510552
C           2.69320566585337   -5.93178659608093   -8.02940098645714
S           2.75989426578942   -6.59224244117920   -6.41002839782674
C           1.46092787944648   -5.79585562018167   -8.63784781914545
C           1.08510651748609   -5.19784467853612   -9.86300838264463
C          -0.25546635351460   -4.97585607513989   -9.97458291297337
C          -1.00544208209096   -5.34630030500599   -8.82510410558265
S           0.03929762147620   -6.15928206259091   -7.68307628702020
C          -2.29422865601423   -4.99168941423518   -8.49979973127480
C          -2.78307839026624   -5.16851890212468   -7.19171897563225
O          -2.04702811928626   -5.92829650195730   -6.33230090542933
C          -3.80210599592904   -4.57307101155479   -6.45513882913662
C          -4.93941547604408   -3.66308148935155   -6.51947598341657
O          -5.46622902667204   -3.10025994850746   -7.44472230526433
N          -5.34448428861234   -3.54313890643542   -5.18124524592881
C          -4.58357806912223   -4.25501462893002   -4.26765068208486
O          -4.71479539674073   -4.23018656793939   -3.06660447154242
C          -3.60464280540073   -4.95259845551169   -5.10197389098049
C          -2.51042893188627   -5.79305852938429   -5.06228902970196
C          -1.82147802549862   -6.48261465169513   -4.03280548579320
C          -2.09103409793504   -6.32445756405083   -2.71793607074721
C          -1.38504090129150   -7.04002542974400   -1.70809273186038
C          -0.42722532999477   -8.02814386987562   -1.82116424908573
N           0.01639755303440   -8.40780421496704   -0.60112566133348
C          -0.60336745061141   -7.66762451848386    0.26288639274398
N          -1.50029839444053   -6.82060186715119   -0.33460018373684
C          -2.20189378372396   -5.82618213935751    0.36135659056403
O          -1.67776419977336   -5.18188933435592    1.23518393556347
N          -3.52239205092333   -5.68559131972279   -0.00204363624036
C          -4.34426946793785   -4.62203536268986    0.33803283418194
C          -5.58647471452054   -4.95854465735004   -0.08177210468613
N          -5.57556738410200   -6.21028526372274   -0.64111183756089
C          -4.35933662990470   -6.61919972359970   -0.59705217752745
H           0.17753534130652   -4.40145341365277    3.40601743726000
H           2.53508438196762   -7.80204165800220    3.37302862079958
H          -0.77756710271734   -2.86211395756008   -0.72070795969905
H          -0.87278234112321   -0.33918140028773    0.39279571454676
H           1.67905081906150   -2.64864152581540    2.68215472757353
H           2.25480657075043  -11.08430850659698   -1.19270734982248
H           4.89864553761874   -5.15624175840114   -2.26558406087385
H           3.64062861966576   -7.34505660172080   -4.00713919602465
H           5.82398847364249   -5.32205598232353   -4.76187690816029
H           5.85366197282959   -4.99024434383873   -7.45313130452688
H           4.13651157730042   -4.99972447204015   -9.37713793532401
H           1.80776355413927   -4.92517587471056  -10.61176303848193
H          -0.72562625170027   -4.50091444795872  -10.81737222230649
H          -2.90668826950165   -4.44564142852376   -9.19846815315717
H          -6.11904991942797   -2.95651238494281   -4.90607739946719
H          -1.03204786939384   -7.13777284193193   -4.36879921910187
H          -2.86426808267623   -5.62705478965559   -2.42897429194449
H          -0.03909893233495   -8.48594131608143   -2.70819907087249
H          -0.48441579891307   -7.72510275355153    1.32625402812481
H          -3.94938364307352   -3.75146031663599    0.81780133639496
H          -6.49508109844673   -4.39591656553604   -0.02359516568375
H          -4.01307899724581   -7.57398150530163   -0.93851365946125
