87
 SCF done       -177.128162944355          0.000602565654
C          10.86380019288217  -10.88083625864095  -17.14590751098271
C          10.99731749481716  -10.92450198450676  -18.50097168193523
S           9.77285243103917  -11.90326868788104  -19.21704109487372
C           9.05467994046293  -12.25928840876726  -17.66265407050534
Cl          7.68739473000192  -13.24796587363742  -17.52685758577783
C           9.75239110318051  -11.64764556419435  -16.66434717637036
C           9.65733338686311  -11.53437378428602  -15.20404076593278
O           8.77717164246747  -11.92414017832012  -14.48043245015328
C          10.86383972593162  -10.72234658535030  -14.81341526004114
C          11.54113235360045  -10.26165863598040  -16.02760174853293
C          12.61548890081020   -9.42422906385278  -16.12363798229435
C          13.17523446955540   -9.08456605913512  -17.37535872718572
N          13.64092278933809   -8.79715920816631  -18.38302919219002
C          13.27366297634518   -8.80290913215100  -15.04181475604176
N          13.85254534355095   -8.26250509046264  -14.21140930670341
C          11.21920016309261  -10.48091112959102  -13.54148401254343
C          10.57181763529673  -11.11906148777643  -12.39052227856159
N          10.52277218863455  -12.44805634613482  -12.38920025942015
C           9.93686332796926  -13.01407163057829  -11.34864069039440
C           9.42064882200410  -12.28372579213428  -10.29248023269855
C           9.57711021811974  -10.89295463410130  -10.35388411138934
N          10.15293977339824  -10.32689037978174  -11.41880951290266
C           9.18580706543522   -9.97115539280981   -9.31130022463337
C           8.81503050006624  -10.32331797041224   -8.07082943149772
N           8.52035734019496   -9.40955229412967   -7.09603825166861
C           8.34191767005154   -9.69287557794818   -5.78469641625950
S           8.39914865888356  -11.32754438391069   -5.20886749851724
C           8.27015860064534  -10.74810669704283   -3.57535661987186
N           8.25892869603011  -11.70301843272590   -2.55612367554683
O           8.17932792192651  -11.30858978800157   -1.40747119369742
O           8.33137232933207  -12.87075821464037   -2.90383207427284
C           8.19934904548801   -9.38573385456483   -3.49005099567647
C           8.21212487004154   -8.75213520443383   -4.74948848763072
C           8.13545257382376   -7.32705300543182   -4.88938817574914
C           7.61505995598372   -6.62957828601009   -5.93256870192477
C           7.61181801178822   -5.21999207240812   -5.97565289311108
C           6.96539800248704   -4.46508583309061   -6.91768032247358
C           6.95552063837018   -3.04931253663326   -7.00381352287597
C           6.18745137772277   -2.55717996005452   -8.01228926919450
C           5.53293968279178   -3.55407044485645   -8.77412472669972
S           5.96092983167668   -5.14320810188252   -8.19463382007854
C           4.63301726860576   -3.36199719046150   -9.80724149668143
C           4.21082958460904   -2.13203401992063  -10.35832478321192
C           3.26847494922894   -2.26469650202178  -11.33393176799804
C           2.89314331594024   -3.60252605635066  -11.59796583284067
S           3.80494570793524   -4.69564945202768  -10.58123179639355
C           1.92964809831871   -4.01472305668696  -12.49666992067717
C           1.57042848556299   -5.34692755585369  -12.67926412177890
C           0.57471591608948   -5.78209334504720  -13.53041348396017
C           0.15064361701037   -7.14356927559812  -13.73824219454966
C           0.67609068290640   -8.27703522389716  -13.16145600515823
C           0.20751730150921   -9.58140341322212  -13.41464971012685
N          -0.12653959845993  -10.66871930284789  -13.57561060472349
C           1.74604896602090   -8.31514949206462  -12.24579436449990
N           2.60880466827197   -8.44013258314797  -11.49655985157707
C          -0.95976155142968   -7.12350727095716  -14.68929843009084
C          -1.20698956113440   -5.78208551193783  -15.06902279045605
C          -0.25698524480495   -4.89420333335278  -14.36710685495390
O          -0.19630340213151   -3.68422904067591  -14.47214788061709
C          -2.19721441031071   -5.43058216236874  -15.95236405135610
C          -2.98631557356499   -6.45394808659747  -16.48903923970281
C          -2.73287006976494   -7.79094985470801  -16.10469435353658
C          -1.72898411223869   -8.14594233151093  -15.21078395148500
S          -3.82438805005839   -8.89721082112461  -16.88314801834091
C          -4.59543688130283   -7.56504783955593  -17.70246003081996
C          -4.06487901530541   -6.35421622186748  -17.41039066289706
Br         -6.02883354423031   -7.89863063498928  -18.86593346396404
H          11.72771260062728  -10.45211788492247  -19.12758249615891
H          12.02939193095523   -9.80650404404884  -13.29973243970514
H           9.89113823184258  -14.09508389639092  -11.36860686319430
H           8.92935435285071  -12.77001008961950   -9.46730736699271
H           9.26852484433020   -8.92808117189729   -9.58276458645801
H           8.74436048387336  -11.35464464391309   -7.75752365042728
H           8.58837764662092   -8.42847595371665   -7.34411732211317
H           8.11776455983227   -8.86759254953379   -2.55164974886536
H           8.48740393610048   -6.76947172279908   -4.03097100260877
H           7.11995777586485   -7.13873773068419   -6.75016126618403
H           8.15338246822839   -4.68975721632137   -5.20337537359400
H           7.51568068793093   -2.44425401978310   -6.31319720446612
H           6.06103978098460   -1.51032997721138   -8.22031799858447
H           4.60673887381802   -1.18973651759509  -10.02515358995178
H           2.82144581085083   -1.44497035948347  -11.86739785814348
H           1.41906347007314   -3.25411352258661  -13.06976757576166
H           2.10883283155987   -6.08281823869089  -12.09464623067570
H          -2.35999184776940   -4.39840223685833  -16.22042832802175
H          -1.57855159398308   -9.18009518503615  -14.95038624329749
H          -4.41802677359783   -5.42797949347336  -17.82564048341546
