92
 SCF done       -170.746108367395          0.000890908737
C           3.19884269016617    2.06516045072968   -0.88679959888246
C           2.73746237691020    0.95316738332133    0.02239585216663
O           2.22334646479946   -0.05176085055448   -0.39504835338843
C           2.96106197575852    1.20226639280114    1.51018154671764
C           4.45366327610638    1.30783759846153    1.83479013678713
C           5.18810109983817    0.05224554174532    1.37047591476430
C           4.46144099722090   -1.19406436190210    1.76906853551425
C           5.00611278243210   -2.47342088401061    1.69000873953627
C           6.24538980209366   -2.96811648221876    1.21978150091852
C           7.24941738689035   -2.29835329379248    0.59508198864855
C           8.42143918318258   -2.96060553559988    0.16599025388826
N           8.68462182160604   -4.23406126382055    0.30022737785860
C           9.86298792088434   -4.54899451223164   -0.21673282547500
C          10.58827441764608   -3.49287854917265   -0.78873524922000
S           9.70759777500211   -2.02806954328547   -0.65630141599575
C          11.80489725242250   -3.99922729868933   -1.28382342591061
S          13.19907720502587   -3.42347052132972   -2.08859880431045
C          13.88111305337236   -5.04477489152237   -2.09694761948241
C          15.13060129312036   -5.24554724435774   -2.71205451540967
C          15.81609587792847   -6.42533806542399   -2.74882412211408
C          17.07843670813356   -6.60747916811312   -3.34758343422512
C          17.74049869099478   -5.86242885185354   -4.28770358341987
C          19.21272927654488   -6.02299887662183   -4.39894323039779
O          19.89195001058316   -6.88434012823787   -3.88764805489992
C          19.66917006184329   -4.88068544795573   -5.22309665572687
C          20.95833942606876   -4.49524053058070   -5.52554040496136
C          21.12157995645265   -3.35366547420091   -6.30231991788968
Cl         22.71091418913317   -2.82599381774054   -6.70991831323693
C          20.02664099601920   -2.62603778314922   -6.75390388803569
C          18.73355815229093   -3.02645811920708   -6.45204215163540
C          18.54968930193608   -4.16544937700682   -5.68347906625043
C          17.33533486598594   -4.84346676249795   -5.22705227855234
C          16.09594551070200   -4.68120758183920   -5.79539636096115
C          15.80213006791046   -3.72234496061406   -6.78507474890231
N          15.49860275101613   -2.94926893810691   -7.57815063833089
C          14.98459130019483   -5.49921095719071   -5.51573035419678
N          14.05223154587237   -6.14734609911969   -5.34537452096882
C          13.02824103815429   -5.96301863533910   -1.48949208434154
C          11.86174413889287   -5.38013995852997   -1.03216294690605
C          10.61581486159024   -5.83562719656041   -0.33155844443647
S           3.86970890141656   -3.65126655060064    2.28418249092652
C           2.67407276185976   -2.43403404159665    2.61664195836633
C           1.44068414086382   -2.88266477056015    3.15925975375793
C           0.43554878324062   -2.13456083856926    3.67591189178512
C          -0.77906575120256   -2.66813764272391    4.18453208205238
C          -1.20117764065911   -3.98402027008319    4.29963443423581
C          -2.47582288307022   -4.08687932677705    4.84184910098012
C          -3.04235780849754   -2.84516663497199    5.14406260622908
S          -1.99475391699578   -1.54329690008673    4.76601691895705
C          -4.33678372639255   -3.04286791439654    5.67368026550445
S          -5.68415622227712   -2.16545065839418    6.26541359554635
C          -6.48143767738447   -3.72654250157176    6.51635438082388
C          -7.80228977858609   -3.75027096903118    7.04288073623784
N          -8.51675060276561   -2.70548790486373    7.35102570550988
C          -9.70635559050029   -3.20264063527846    7.80602265508068
C         -10.79501581279869   -2.34286064838433    8.24968605047758
O         -11.85637561860265   -2.73527922633540    8.66089618239932
C          -9.64142311554184   -4.57617730040396    7.74633310076485
O          -8.44540575068709   -4.92285745705481    7.26626772231185
N          -5.78148487763741   -4.77291082052537    6.18231926988994
C          -4.59155094958881   -4.42165820936609    5.71204138806447
C          -3.42437354789315   -5.19637020852474    5.18907231796530
C           3.15079321241252   -1.17386667789136    2.26778004975157
C           2.34241561604798    0.08277268129474    2.34914071742227
H           2.71443463047012    1.97002549420545   -1.85514849642385
H           4.27399084828057    1.98357782231662   -1.03715162846966
H           2.98720528792065    3.04029992053378   -0.45741416920185
H           2.47005729385143    2.14930978201477    1.75974261659872
H           4.56337276264653    1.41507903494929    2.91620545784236
H           4.89347599507068    2.18851429414559    1.36531281982843
H           6.19304397863062    0.04112960772580    1.79974180003500
H           5.28906702975192    0.06305681675294    0.28020773417402
H           6.39769700946685   -4.03108079233310    1.35775989615294
H           7.20080217970172   -1.24529051554947    0.37647616506132
H          15.58553390631028   -4.36399549193833   -3.14553229390894
H          15.41571264708771   -7.27485569703893   -2.21453677996055
H          17.66840928779481   -7.43378826731997   -2.96026187603580
H          21.80231997565609   -5.06401572504548   -5.16883610423623
H          20.18844525453673   -1.73957826527292   -7.34686688811215
H          17.89925218841629   -2.44381125348542   -6.80762168303566
H          13.26311459119645   -7.00784671968835   -1.40655268059716
H          10.82304220183488   -6.27281345719652    0.64675241943808
H          10.06185207549870   -6.57374530876479   -0.91439902006486
H           1.32866137877928   -3.95884900366627    3.16399481120359
H           0.52055422285631   -1.06193113858264    3.73421933450083
H          -0.59967108278241   -4.82200845413184    3.99997013727952
H         -10.54821043906343   -1.26922247721792    8.17710353335023
H         -10.34259651174804   -5.34360785518563    8.00290176709306
H          -3.69467201157117   -5.79847920572074    4.32001494261998
H          -3.01466588563077   -5.86970919622772    5.94403530207421
H           2.27102799803996    0.41106461565948    3.39075375777517
H           1.33491354532129   -0.12170852875222    1.98021890661009
