77
 SCF done       -151.387381426798          0.000883927739
O          -2.33167954290566    2.94638209172666    2.14823695086903
C          -1.91870017160586    3.91556169378605    1.29191218169596
N          -2.72035709876901    4.08387796966253    0.28240497765942
C          -3.72827577103586    3.17847261954994    0.46693849995120
C          -3.46963539225006    2.48419902161309    1.62708886234569
C          -4.84125637837623    3.04612547993468   -0.46617545678498
O          -5.74758835573341    2.26391778317280   -0.34448515813335
C          -0.70257045829424    4.62237728945758    1.55128601426909
O          -0.28519790398864    5.56733865186647    0.69637905041214
C           0.88290782252733    6.06566094208904    1.15499565542219
C           1.22803655397212    5.43190009825734    2.33560404576473
C           0.20626474766628    4.50173840225072    2.59161651626995
C           0.12290290368692    3.57274415129019    3.75043910921963
F          -0.97914586273743    3.76803936461496    4.49564308861124
F           0.10457901737903    2.27970884141465    3.38098978508849
F           1.16823361965529    3.71369120859195    4.57765966862635
C           1.58066559029193    7.08428856113476    0.44069817365028
C           1.11486937705591    7.61740551632145   -0.71020313311116
C           1.74732618412925    8.58956272767747   -1.53537810762191
S           1.14996653598697    8.69773660024824   -3.16833316325772
C           2.37406059843141    9.84420333155600   -3.59136598072384
C           3.19349998780395   10.13578330890899   -2.50472247506823
C           2.81365170049794    9.45718740835168   -1.33337806306834
C           3.44724807979681    9.74231169501579    0.00163064009975
C           2.40532115982438   10.00144698721705    1.05593282891096
C           2.52890661767576    9.66457569905467    2.32562503705836
C           4.34654789398192   10.98784885159216   -0.08586859557380
C           5.23798731380303   10.91871666198740   -1.31592619962364
C           4.37994189951613   11.04382106903961   -2.56996795604201
C           2.46512750289980   10.39050719196626   -4.90369068454518
O           3.44342425674706   11.27994928441219   -5.15700788191840
C           3.35868623386246   11.67846848165511   -6.45139802833822
C           2.29180060736200   11.03706341703246   -7.05178831319876
C           1.71853322662250   10.21138875281281   -6.06716619353018
C           0.54008711711623    9.33526979936101   -6.28719948654901
F          -0.50297855163576    9.64033097523895   -5.49072283341149
F           0.08485333564336    9.42459831092382   -7.54525161673290
F           0.80245245876446    8.03061522692706   -6.07739983608684
C           4.32176225371984   12.59627426126016   -6.94522986403309
C           5.33466265457314   13.03983208789644   -6.15096104604825
C           6.36961935488617   13.91456215920589   -6.51708138722454
C           7.37649216912188   14.25427045048879   -5.65033990477811
C           8.48756962101488   15.10281314576516   -5.89150287840707
C           9.33835298007954   15.22875260683896   -4.83922338957719
C           8.95369844684254   14.48685174541048   -3.69389480544054
S           7.45817492439797   13.62884422762969   -4.00769075106866
C           9.60005979765522   14.38866177804803   -2.48595082267665
C          10.82053962270591   15.01095596275708   -2.09998824002293
C          11.22354403080751   14.71664152463922   -0.84468618118129
C          10.34747757041913   13.83165058177125   -0.13085805297222
S           8.97764665439250   13.40942567184051   -1.17170295890740
C          10.48889442189920   13.36604885484045    1.11706770389528
H          -3.99310880900867    1.69881364596747    2.13232505189339
H          -4.77327333419524    3.74939079249006   -1.31382447246701
H           2.09447583140550    5.60892611630269    2.93794950165988
H           2.51704244758959    7.38499393112444    0.87554977971103
H           0.18436291094738    7.22582746081648   -1.10184482362773
H           4.07296905597119    8.89154022050680    0.29675393451181
H           1.53904157632165   10.55365895923902    0.71801930497905
H           3.38602780593378    9.12134768134593    2.69082347000622
H           1.77985818052627    9.91402457112447    3.05668323313832
H           4.94346899330527   11.05405567668927    0.82459630575858
H           3.72154511634379   11.88175705196029   -0.14219890357393
H           5.77173038563001    9.96618642294394   -1.32643821038128
H           5.97830565588817   11.71984831324769   -1.29946781341292
H           4.97550200589231   10.80341842741809   -3.45232772670499
H           4.03773430772550   12.07682038730955   -2.68432920675347
H           1.96155928830261   11.13831604461738   -8.06468582947321
H           4.22544363870803   12.90780281533292   -7.97351318311930
H           5.36317666330383   12.67504412864519   -5.13182439396541
H           6.38957745871431   14.32727898063756   -7.51617373210842
H           8.61960399431916   15.58903456993893   -6.84218304110400
H          10.23028072775367   15.82934803180587   -4.85101279872746
H          11.35674039652403   15.65488066758186   -2.77438183689373
H          12.11948413270605   15.09060360748511   -0.38187079173103
H          11.33689596518621   13.64881713767010    1.71531895513678
H           9.76743424563862   12.70376383162596    1.55915788297080
