81
 SCF done       -160.451157072734          0.000841191713
O           6.61364802095464   -5.84168271518642   12.64999327711914
C           6.49773203267225   -5.87171625930987   11.29378592460103
N           6.71000188626094   -7.05128325100509   10.78965976217263
C           6.98101115823277   -7.85867436247978   11.85930753132557
C           6.91767392445367   -7.09329220492568   13.00090158365131
C           7.27535176404931   -9.27783176613582   11.71025000866075
O           7.53578752908855  -10.02507406580830   12.61798387378263
C           6.17474729595203   -4.67330557210387   10.59922827137939
S           5.91702951838465   -3.17531024036246   11.52053249947951
C           5.62373494311522   -2.40136308118821   10.02626122039821
C           5.73837697872075   -3.31475488811216    8.96864961524106
N           6.04528767174433   -4.55873640143229    9.31031199394357
C           5.46817003552880   -2.64741245292932    7.65716683989436
C           5.16790672624265   -1.24664095702408    8.10481020793464
C           5.27936994957279   -1.13956058519648    9.49404543195515
S           4.92451641484720    0.43656187498909   10.05940590458507
C           4.55732697597266    0.95599010023854    8.42615530197184
C           4.76598920864139   -0.05797941217121    7.50630632795238
C           4.10576588783136    2.29328088365717    8.22547397583485
C           3.27892072408269    2.76854192447977    7.26362654574670
C           2.47122909493429    2.06725931631338    6.31202787934273
C           1.94237711072192    0.76942425362188    6.47311725074592
C           1.18897488572927    0.10089318558378    5.43230405241368
N           0.85307077171464   -1.17590459589532    5.58843298340877
C           1.14419610321593   -1.81372161895741    6.70676745787657
C           1.73501022584117   -1.10049521298418    7.79105396880411
N           2.11414481620881    0.14513889863859    7.64963163216693
C           1.97056236724577   -1.74783530324754    9.02974854123714
N           2.19876077650061   -2.30755712857273   10.00286159643311
C           0.84954097636650   -3.18953259889860    6.81764217502337
N           0.63374660589141   -4.30902946273892    6.94505602880743
C           0.79919757991770    0.76971616666992    4.23923687129507
C           1.22335324557888    2.11862027523382    4.14485191956809
C           2.04869044222062    2.74430913418551    5.14405005872312
N           2.34691476126669    4.00147006607918    4.81634958389794
S           1.65338556746665    4.36501098940568    3.41190573111393
N           0.94600025780982    2.93945763215666    3.13807176107943
C           0.04970815386073    0.18963495492888    3.19983738707441
S          -0.43088948367971    1.18066814617746    1.84200495020115
C          -1.31280063212262   -0.12632710058994    1.06098363087685
C          -1.16134231172945   -1.31194999341779    1.80899277129884
C          -0.41880087120375   -1.11196466486532    3.00089768565170
S          -0.20133769728267   -2.57469298736279    3.88573755260455
C          -1.04414494112267   -3.46611351519825    2.63614234215365
C          -1.22789671735011   -4.92255739695920    2.70516410856587
O          -1.85010012295375   -5.51342588134354    1.84924236756473
C          -0.58172022046965   -5.59585935273528    3.89127637338025
C          -0.83487702447152   -7.09595411075606    3.91357825453627
C          -1.49095917711675   -2.66942805263428    1.61946080269097
C          -1.98561141341511    0.20908713075222   -0.10856390535155
C          -2.99468237144028   -0.43003186234426   -0.80682663550705
C          -3.55765914499143    0.07747613816457   -2.00277090285272
C          -4.60274488445014   -0.64870046706149   -2.49081899329458
C          -4.93196678025753   -1.76803948624078   -1.69669741122032
S          -3.85379352287637   -1.86985218281449   -0.32047310840320
C          -5.93681195872605   -2.69414690899929   -1.89704582068392
C          -6.87054584160108   -2.72958264932278   -2.96977835941247
C          -7.75131075348201   -3.75357326411078   -2.90317127131909
C          -7.57709974117248   -4.60723701862884   -1.76374631109662
S          -6.21732675225729   -4.01634284424444   -0.79426884210959
C          -8.29498721860095   -5.68881968053395   -1.42897647011868
H           7.06016174580379   -7.32363602278755   14.03666333217621
H           7.23641100668707   -9.61257034430376   10.65927775879572
H           4.62494375706065   -3.11102541717576    7.14082211019694
H           6.33262687042421   -2.69692322068417    6.99218086923115
H           4.64501331250622    0.08857720394654    6.44741058683547
H           4.48526493817414    3.00889894134446    8.94496761350725
H           3.18976413399395    3.84446526494681    7.17681475431315
H          -0.95710189701783   -5.12942243388782    4.80594038160418
H           0.49163925334153   -5.38985636360286    3.85422938851011
H          -1.90278558194142   -7.29537641099511    3.95085794859930
H          -0.36055682879368   -7.54370405022244    4.78218250783315
H          -0.43737324044306   -7.55832294986177    3.01344149942067
H          -2.00584510797781   -3.07613533235877    0.77038393347121
H          -1.71801426434816    1.18115498367422   -0.50852522822177
H          -3.16873925512576    0.96597416814408   -2.46800623962222
H          -5.14103142676510   -0.40461548508121   -3.38860248081109
H          -6.85335190553139   -1.99369317353617   -3.75369128215308
H          -8.52824502892119   -3.94614161326343   -3.62127127217924
H          -9.11597270714560   -6.01560429398875   -2.04265685581996
H          -8.07604057949231   -6.26039096449714   -0.54568511067386
