80
 SCF done       -147.139821400714          0.000496274965
O         -10.74233346148442    7.76617776017623    3.01948650299873
C          -9.80331115625968    7.66966272192809    3.99339516982356
N          -9.76700444044313    8.70976549440645    4.77698768115312
C         -10.73505709904986    9.55198523413827    4.30468911387730
C         -11.32621250263391    8.95008160775565    3.21725556943062
C         -11.01701671802854   10.84188740333322    4.91920655932768
O         -11.85782666904368   11.61519060288530    4.53840297723812
C          -8.97449334673808    6.51925607351438    4.10033333144943
S          -7.75585472879381    6.45071743334180    5.38340221967078
C          -7.33563374551577    4.90000612418615    4.78796037511717
C          -8.13524162287909    4.56361280484382    3.68558233325031
N          -9.03102141993529    5.47338544515328    3.32535811730585
C          -7.78203029515897    3.20798083557782    3.16229767060967
C          -6.68662006112257    2.81313252264587    4.10843138077916
C          -6.45203331986132    3.82694854834632    5.04035555121498
S          -5.20822961424317    3.42488514466696    6.15215341610941
C          -4.99543882868212    1.87074380987397    5.36741356112419
C          -5.86335419845558    1.71029668449661    4.29769344896871
C          -4.04482206131363    0.92096386220167    5.82436114328427
C          -3.18823466279839    1.13943219580861    6.85060727824325
C          -2.23098383805441    0.23999697003102    7.38860364752487
S          -1.00598019418931    0.91266127005275    8.42864426021953
C          -0.27590637683008   -0.64652297074606    8.67395666672884
C          -0.97411319778157   -1.62765268932994    7.97986588752402
C          -2.07470990075811   -1.13573304696040    7.26585829371805
C          -3.00226865233433   -2.03595219927955    6.51256134724475
C          -2.85436132393121   -3.48891739965057    6.97013743259963
C          -3.48054251950433   -3.69073857510749    8.34557373224275
O          -3.96598133620836   -2.78743195218670    8.97511291730883
C          -3.46071810367084   -5.11156605057234    8.85392732530173
C          -1.37178717817389   -3.87637613862183    6.96792353522335
C          -0.60928712903077   -3.07940441805907    8.02341251751485
C           0.86758002794693   -0.82110206973087    9.48695163161336
C           1.51014538743699    0.17573019297008   10.14627218227832
C           2.65205639684234   -0.05176499664362   10.94531960385640
S           3.44306504885905    1.32280589224974   11.76898017205364
C           4.57666520340916    0.20235817414695   12.39873709747407
C           4.28054787693843   -1.09175104215842   11.95290100393187
N           3.22424590961727   -1.20799502674847   11.15827323096297
C           5.26281931846968   -2.08064412711779   12.49717655850767
C           6.15535465666615   -1.18497412624403   13.30575536075044
C           5.72134932948750    0.14289021984067   13.22307467756102
S           6.70825295798618    1.21042739968814   14.12667325558800
C           7.72359235599990   -0.13035721438077   14.63060747070120
C           7.28317422352104   -1.33422418270485   14.09975183155708
C           8.82863580476819    0.13707359401903   15.47825260662364
C           9.69688411395445   -0.78316955569330   15.95333596401402
C          10.78563680898338   -0.42287933044881   16.80068957097306
N          11.11166988381478    0.76599954971008   17.22328496416807
C          12.22260823834075    0.58824626690786   18.00173597462457
C          12.52654248226397   -0.75352198102372   18.01278375865103
O          11.62757952412936   -1.39368234236791   17.25975599319800
C          12.90018390444105    1.69287237121300   18.66305126371172
O          13.87684012688574    1.58435080387434   19.36037356742300
H         -12.11489543234489    9.25843303287849    2.56204701147286
H         -10.37069724051806   11.05069981696244    5.78941815418832
H          -7.44004150512829    3.25034693096421    2.12670916072706
H          -8.63185549647182    2.52452185001553    3.20332045411777
H          -5.88018633123525    0.81955685544188    3.69576049251042
H          -4.02985205590842   -0.00615487549824    5.27347160386308
H          -3.20101840278466    2.11892797906517    7.31465931559690
H          -2.78960165557611   -1.97478522178810    5.44049237969334
H          -4.03073915053949   -1.70881015079050    6.68073485311147
H          -3.39536912562817   -4.13923214538135    6.27308131368591
H          -3.62315693113218   -5.82347874475631    8.04979618406619
H          -4.22016505089229   -5.23460828345875    9.62176813283172
H          -2.49088858668525   -5.31666594645092    9.30398900138467
H          -0.96170966705125   -3.65583130209821    5.97981599788364
H          -1.24967050104847   -4.94486272567830    7.14912190676167
H           0.46580281054857   -3.19899401298452    7.86980740935477
H          -0.84052098471867   -3.46319768478899    9.02247966932347
H           1.25365406969435   -1.82513461944879    9.58934567962443
H           1.15789745665013    1.19528598373783   10.07545078198361
H           5.80315192104461   -2.59394837798508   11.69977852997469
H           4.77294649707689   -2.83983969851215   13.10954823074324
H           7.77370282765549   -2.27066110293172   14.29193940327780
H           8.98585546621105    1.16779510533014   15.76432516735778
H           9.61357148287785   -1.83287126589675   15.71873379518576
H          13.30342079277324   -1.31499668560207   18.48926195302779
H          12.42354491533443    2.66870171141102   18.46292471389628
