85
 SCF done       -146.891796580047          0.000782050057
O          -9.46664634019876    9.51584089878932    6.54199149063969
C          -9.79180717806961    8.56162839583926    5.62583091073335
N         -10.81558493215988    8.88577531890462    4.89201723664301
C         -11.20117838144788   10.12071615732879    5.33536351234634
C         -10.35635473383413   10.49402060666465    6.35497820314644
C         -12.32827428479136   10.84125092202809    4.75848710816493
O         -12.70948773897240   11.92408759030840    5.12183593167403
C          -9.02013911004993    7.36988285389990    5.56336786266318
S          -7.64756403975281    7.16322653416303    6.67994079443009
C          -7.37970433551042    5.64371008506174    5.94031136452166
C          -8.32665054320844    5.41515378083635    4.93055457782140
N          -9.21691742943334    6.37996122259431    4.74390839044559
C          -8.09696556920016    4.08897617138430    4.27805469282021
C          -6.90325119635521    3.59535929981881    5.04155382303050
C          -6.51444768863212    4.53067339483730    6.00324067404468
S          -5.14830760687658    4.01764373343413    6.90765207075215
C          -5.08685452588795    2.52478681636328    5.98648531339586
C          -6.09587468727285    2.46412203483703    5.03721709149064
C          -4.09274235306660    1.54109950776688    6.22860597504917
C          -3.10450072364614    1.68640498518317    7.14440904877989
C          -2.05781979210289    0.78354633299134    7.46200298267762
S          -0.71838516790749    1.42788996237775    8.37811246930823
C           0.11298515050036   -0.09949270489863    8.34733156716772
C          -0.63605937481130   -1.05341426277865    7.67077427820552
C          -1.85766718859653   -0.56223910822528    7.18517498715528
C          -2.83693885038083   -1.45121486993042    6.48467784663149
C          -2.58625563817395   -2.91540390827541    6.85617192211853
C          -2.95670409243272   -3.26717276226074    8.29376723183669
O          -2.31489468154991   -4.05649030076260    8.93928434797488
C          -4.19332606392587   -2.60714933756487    8.84755824206810
C          -1.12175258886099   -3.25694857194662    6.57121481436869
C          -0.19532990593778   -2.47416750489062    7.50151481105790
C           1.38483398006809   -0.26373882179967    8.95217787995930
C           2.04968420707450    0.73402050994986    9.58403371878801
C           3.32633328394704    0.62695871614510   10.19016689783271
S           4.02613745669590    2.03945361006949   10.93457528857095
C           5.46111818973789    1.14908576693765   11.37697946447648
C           5.36977724976683   -0.16768899505760   10.96074797659734
C           4.18094294541803   -0.45667515435304   10.30055658776764
C           6.49592725555518    1.76754008354269   12.04637454659445
C           7.38042048308273    2.36582658826737   12.63329762327540
C           8.38474408353662    3.04856606456117   13.28932195925268
C           9.57935679422055    2.49652350006783   13.64928074232959
C          10.58637613199832    3.21857235117996   14.30902659476160
C          11.80395035577895    2.70882532297669   14.67897882675345
C          12.84758561287757    3.40664107213053   15.33953814860966
C          13.95561924354272    2.66014047928974   15.58543362855009
C          13.85900647849491    1.31970168315945   15.13488851147433
S          12.29753599499494    1.04726301631603   14.38383817072108
C          14.80534608357178    0.32846933767257   15.23728156473242
C          16.10058570733723    0.42898038574921   15.81795101935638
C          16.82056165618652   -0.71373505902189   15.77852870774947
C          16.14669709765616   -1.81842546695554   15.15857809557882
S          14.53843540973135   -1.29553759257904   14.63252108498778
C          16.60674685235517   -3.06399781489143   14.97922152293898
H         -10.30404471220363   11.36960943158224    6.96878206577411
H         -12.81233550415216   10.28774542423941    3.93574261154246
H          -7.89272777883040    4.19486862832481    3.21120371529463
H          -8.96066877111763    3.43068231809744    4.38633339193392
H          -6.21876573868435    1.62425702720155    4.37704366035403
H          -4.15190790629729    0.66600530901610    5.60025444982714
H          -3.06654010328606    2.62377759872596    7.68779298550467
H          -2.71220563721250   -1.34297967046317    5.40164541030680
H          -3.85628278397266   -1.15225757847051    6.72867484617909
H          -3.23091492171688   -3.54834974552919    6.23173443538270
H          -3.97082284191174   -1.56590915090318    9.07514964871270
H          -4.48847060949804   -3.10753338067280    9.76632234398228
H          -5.01000678744109   -2.63959280111806    8.13120923051462
H          -0.89974153542856   -3.01361513549947    5.53019108263857
H          -0.95458691458095   -4.32434299249012    6.71730327857099
H           0.82492289448429   -2.50302881763512    7.11099065540790
H          -0.18441667487626   -2.95656500000534    8.48318502070136
H           1.82101502540645   -1.24965745032925    8.88681000975745
H           1.58362667228548    1.71047001053813    9.63574995704659
H           6.15462801413444   -0.88103797318877   11.14054063915177
H           3.94275832696616   -1.42996942974989    9.91050762491498
H           8.18467069328561    4.08945104855560   13.51685343224453
H           9.77319354417314    1.45684889366925   13.41831958443814
H          10.39661712889652    4.25866233083237   14.54433160839621
H          12.73956313976187    4.44274360828327   15.60964418656663
H          14.83783227502873    3.03050784065866   16.07616875298500
H          16.45179296346074    1.35146463144870   16.24542024384013
H          17.81703923797066   -0.82772452979827   16.16722488275509
H          17.59074084985812   -3.33924479158542   15.31569927483211
H          16.01499749433241   -3.82204851093803   14.50018083558732
