86
 SCF done       -157.333722697305          0.000427823374
O          -6.44135858690911   10.93498069902162    2.38801340377716
C          -5.75018389801122    9.83871612890547    1.99093828207962
N          -5.43035967661609    9.86217644168901    0.72820583640580
C          -5.93351432314778   11.03944591964089    0.24959967659291
C          -6.55540050009067   11.68838664524585    1.29222690781466
C          -5.78123755587568   11.44675894232943   -1.14104301652273
O          -6.20536864901594   12.47289927278179   -1.60603445900746
C          -5.42529661045915    8.79886292805208    2.90530435521337
S          -4.51721241883146    7.39922701015629    2.31357797009138
C          -4.57735546089337    6.79092653023024    3.91391994513183
C          -5.26837895196819    7.67626285980009    4.75365336992924
N          -5.72722641960144    8.77761949909984    4.17221809808941
C          -5.31447257441613    7.15755274803131    6.15593898717909
C          -4.55187141409151    5.87278656413951    6.01297262562000
C          -4.14374738879682    5.69243306779514    4.68767120412827
S          -3.25433659780920    4.24636909264037    4.46866744148730
C          -3.40963216629852    3.87563436102719    6.17816047084206
C          -4.13843436244336    4.84521212314215    6.85130320692583
C          -2.76310418779694    2.70763391100480    6.65694352026783
C          -2.68381077020750    2.32491953271717    7.95610808569468
C          -1.94995762593307    1.20323992230153    8.42466811218472
S          -1.40534461326531    1.19973801196950   10.07796556037040
C          -0.46270613199532   -0.25027508837070    9.82687500000630
C          -0.63336858113419   -0.72744200014461    8.52583424520404
C          -1.48961810176399    0.07302583786595    7.75819274821647
C          -1.95514984528687   -0.37961213310660    6.41060721538337
C          -2.01182262657349   -1.91180027230194    6.42355357298881
C          -2.98199186238993   -2.44338680507980    7.47410051082704
O          -2.68941103823627   -3.33690436811841    8.22605847776413
C          -4.34300047324960   -1.79367234935003    7.49405367721165
C          -0.59980919616903   -2.44467603530459    6.65588745499771
C          -0.03702875517170   -2.00000961177881    8.01336852215136
C           0.31292711323382   -0.71965274563415   10.90745836510475
C           1.39883599164451   -1.54548242492161   10.81531957126164
C           2.17190979228519   -1.97085245971632   11.90112224213339
C           3.37328685266054   -2.62600413676700   11.73993026629082
C           4.24595124610829   -3.11727579201162   12.73505385514394
C           5.40150692207028   -3.66004479652331   12.24899127118805
C           5.50623001692464   -3.61069977449615   10.84374461875249
S           4.07630101253010   -2.89764039752368   10.15107883073938
C           6.56812445156709   -3.99490537539570   10.03731676988097
C           7.79178350833954   -4.58078244690172   10.40956972581582
C           8.64239980661771   -4.77993328386615    9.35888208832305
C           8.13364709933288   -4.35253684723617    8.11190262874148
S           6.52274720857090   -3.71620872399436    8.30803599609344
C           8.81357450868812   -4.39749485964632    6.90896296627137
C           8.37151725375180   -3.94497995313543    5.67330499555925
S           6.78521688731015   -3.23885126237008    5.37736279280777
C           7.12643055261797   -2.94683566181756    3.60051281144032
O           6.31197458062508   -2.44482533674391    2.87683253139921
C           8.46204491849401   -3.42174381647651    3.35443008875816
C           9.11540103833767   -3.96330780199595    4.48986590937771
C          10.44276812499917   -4.42941572117733    4.25333765731550
O          11.26175643450275   -4.93279924552560    4.97715713057335
S          10.78541118206590   -4.11765454468994    2.46940252910837
C           9.20840280684577   -3.42187269486462    2.19070974647125
C           8.78700106955955   -2.92461184578705    0.91895359444909
C           9.54881933253535   -2.92013746921165   -0.17652614816224
H          -7.07180958747364   12.62426194963031    1.35423051521373
H          -5.22550967002950   10.70761353320712   -1.74386182800611
H          -6.33955236440544    6.99574940951083    6.49384987384257
H          -4.83915639067851    7.84536488200114    6.85732431843775
H          -4.34549010129543    4.79626638253939    7.90437779489510
H          -2.24741762040756    2.13367930173034    5.90234226297590
H          -3.12597599349059    2.94809837266524    8.72106400425199
H          -1.25355916367056   -0.06311847954529    5.63315185362170
H          -2.92961689433680    0.05121017670915    6.18093490454081
H          -2.38001927550824   -2.26580811398855    5.45324134256678
H          -4.27132844426632   -0.83563983408193    8.00689308202396
H          -5.03793587860143   -2.42418991854214    8.04272091815361
H          -4.71300480407133   -1.62069399421977    6.48730322997617
H           0.04149676012644   -2.08434769514609    5.84973279462489
H          -0.60628896631344   -3.53388283769091    6.61851146421717
H           1.04473209590106   -1.88332786827086    7.91246539414853
H          -0.21795447028750   -2.77791170707097    8.75918151282764
H           0.05222047504042   -0.32213773337365   11.88093221080987
H           1.74418129516734   -1.85876465535200    9.84258810325440
H           1.83476317546281   -1.76586596607332   12.90826641169533
H           3.99854962949159   -3.05359127312996   13.78012771376306
H           6.17988410511771   -4.07630009079359   12.86278893592058
H           8.01850750895606   -4.83879290238637   11.42851990870187
H           9.62413794956717   -5.21085536832797    9.44216569041327
H           9.81417071893046   -4.81180293121579    6.92153511335538
H           7.77757465145244   -2.53449702297657    0.90118525601864
H          10.55523713131130   -3.30535158666817   -0.15785114236634
H           9.18770577980658   -2.53225399657575   -1.11228548425449
