82
 SCF done       -132.379353883199          0.000490203070
O          -8.29415561071336    1.15573635846394    0.65373409794914
C          -7.00938087567025    1.43456187289089    1.01533243675955
N          -6.17278275112263    0.50039484862578    0.66208503872372
C          -6.93119256010541   -0.45396073636532    0.03198404465923
C          -8.23707693986807   -0.03067322788881    0.03802421761405
C          -6.35539768340439   -1.67249569754337   -0.51156101565044
O          -6.97602301787097   -2.53791376937140   -1.07573779611721
C          -6.74995152285087    2.66300966700146    1.69099023627446
N          -5.51426028584269    3.09319287754489    2.09446883648541
C          -4.28733825073379    2.35667106254620    1.92359441264784
C          -4.15034086639431    1.23688124091980    2.95223139261361
C          -5.64432765032963    4.32532058439413    2.66271929951453
C          -6.98848420232068    4.68107328351879    2.62149380867948
C          -7.68239360559798    3.63943200472559    2.01750380738427
C          -4.52955403046803    5.07254462365605    3.20519809324084
N          -4.32319973130823    6.39884107195240    2.95663235647016
C          -5.14647046058309    7.24438381588293    2.13031694355639
C          -6.04615363115166    8.14917711187294    2.96946656029991
C          -3.19704270064383    6.80549963424065    3.62407680031692
C          -2.68721017498449    5.71044883263903    4.31469939015858
C          -3.51539884609579    4.62814204375287    4.04633928489624
C          -2.64468281581971    8.11242774240424    3.57920044538030
S          -1.21222247578565    8.46864232338011    4.58674636836939
C          -1.25318373014647   10.06485154606755    3.95334099274270
C          -2.30785346082779   10.20376733043113    3.05365936155996
N          -3.06204102574777    9.11944261406786    2.86502613024352
C          -2.35234636608636   11.58938625578944    2.49016065697155
C          -1.18706283742955   12.22192902501368    3.19470257306441
C          -0.57220606969026   11.30068636841497    4.04196007658709
S           0.76020654791295   11.97233789713277    4.88849844833922
C           0.49912219833465   13.51917362394683    4.09425592016427
C          -0.57643479612122   13.47151437597209    3.22417196685568
C           1.32584420558809   14.63826822693846    4.36746676681363
C           2.32936223568278   14.64901708811458    5.27370868324345
C           3.15983762826759   15.76517289550649    5.55701233912499
S           3.01976264541842   17.25954741549338    4.66991538738462
C           4.30349230216249   17.98606928938138    5.59385055209376
C           4.80299793798893   17.10389093728729    6.53035406768864
C           4.15342189732532   15.85444035619919    6.51593346677258
C           4.53205601186784   14.74691183243258    7.45072537312227
C           5.27996349382216   15.28847922139141    8.66790412793747
C           4.44117115406861   16.06205087271221    9.68209513481453
O           4.97216399924656   16.63964427495083   10.59853611697127
C           2.94659596420085   16.05748602276645    9.50494643953789
C           6.43469856824394   16.17968871219826    8.19110332940953
C           5.89376013356046   17.43234218562691    7.50353865256705
C           4.72186216809652   19.33725044200193    5.35433659208861
C           4.20040338835537   20.14467245365348    4.43280682370789
H          -9.13943024649054   -0.46525583829698   -0.33903078371808
H          -5.26319587112261   -1.73711221491644   -0.35677907480109
H          -3.45837721170543    3.06240041052193    2.01387534630037
H          -4.28878483483825    1.91699644367763    0.92359286910841
H          -4.28225330777267    1.61831994863284    3.96153088265687
H          -3.16603668302071    0.78502598268829    2.87164306465465
H          -4.89942229443534    0.47341617367507    2.76576141760132
H          -7.41778892565777    5.57913191659482    3.01629332383279
H          -8.73613053178290    3.58292082653869    1.83162461343409
H          -5.74767156526004    6.60072247694704    1.48422706691271
H          -4.49131716447364    7.86783684651849    1.51755195122038
H          -5.44118380499754    8.87368744703131    3.50638734297333
H          -6.61475164306018    7.56863056562212    3.69158271118409
H          -6.73665091514509    8.68309574988142    2.32295573674461
H          -1.81203061424175    5.71567779979651    4.93399475266624
H          -3.41159042615289    3.63989838992769    4.44569238531129
H          -3.29472236084183   12.09079098723035    2.71826629691332
H          -2.22916985149220   11.58905616533530    1.40557346743853
H          -0.88911711477412   14.32381304042268    2.64791400320807
H           1.11003378344567   15.53520249114399    3.80099399210561
H           2.53123439123757   13.74693861800251    5.83674376152804
H           5.19513782187669   14.05286293734436    6.92183658058529
H           3.65150015668234   14.17799235506878    7.75129100930870
H           5.70343721749699   14.44411402648240    9.22654371579112
H           2.48877744601269   16.67605414634037   10.27283771417657
H           2.56678653828909   15.04150709918693    9.59130447360680
H           2.68169941476059   16.43750308996971    8.52099544260316
H           7.05797360665169   15.61314940121695    7.49628351370455
H           7.04645291393660   16.47323961780675    9.04455009935845
H           6.70922603820906   17.95042559972991    6.99361464088602
H           5.49577475747177   18.11510255085871    8.26179703360007
H           5.51998036885709   19.69058888937475    5.99369855898056
H           3.40098528458431   19.81889638958970    3.78799403739283
H           4.55318212332026   21.15166083735590    4.29942901272959
