76
 SCF done       -140.544229148936          0.000547327646
O           1.30874782378449    5.60450797755298   -1.33230750143544
C           2.05905524702211    6.55035020266669   -0.71718000132274
N           3.04621112628630    6.96573497128202   -1.43860837385976
C           2.96597272672691    6.25847792556128   -2.61348606349915
C           1.88172284611311    5.42087933910317   -2.52529096568950
C           3.91437388027623    6.44214853263654   -3.70207870162997
O           3.88561301783249    5.84707553088725   -4.74845271302006
C           1.67777418830099    7.04357598413907    0.62107078913265
S           0.25157971333133    8.21255875504754    0.41302905157374
C          -0.89605677127247    7.07161988763207    1.24959645484463
C          -0.03843399947356    6.40215496159472    2.32150537310199
C           1.21532762533966    5.93355771389602    1.56886085104151
C          -0.82316178823947    5.20089516646144    2.88951980102485
O          -0.86190828455799    4.13807344557187    2.31722927113353
N          -1.51589903903052    5.48352287566052    4.00611214832806
N           0.24831072620974    7.39711766011827    3.34805825338226
C           1.27531398892019    7.18426409211667    4.24426783090461
S           1.43453287130739    5.67776783175835    5.09537729968741
C           2.83960021034517    6.28524701416751    5.94278394127665
C           3.12424721084071    7.58881049034894    5.58580174957970
C           2.22713421246975    8.09936925713116    4.62562648721773
C           2.37465897986157    9.47010471973713    4.03933310718442
C           3.84711275294259    9.87089514912935    4.10939004264860
C           4.66093188649385    8.95247862356379    3.21149543793391
O           4.19667067457464    8.10294875033728    2.49443370379235
O           5.96435947993093    9.21312820062608    3.29912721076220
C           6.82232021856913    8.41268301717467    2.49535107834110
C           4.32814773128533    9.79596496138016    5.56191534686033
C           4.30620491237972    8.35758185870134    6.08064933381415
C           3.48265155544367    5.39963453464148    6.83210616819856
S           4.98348716492661    5.82457859218491    7.70528178155232
C           4.93111863157328    4.25780037117848    8.40834254153705
C           3.81961353688352    3.55325547573178    7.94320454609461
N           3.03965497447853    4.19785972523527    7.08086992754747
C           3.76107679497218    2.18742149539269    8.54860067372615
C           4.98177085742682    2.20759949242794    9.42151815955839
C           5.64112640256330    3.43643220965975    9.31221457207813
S           7.04372792781956    3.51527933076513   10.29015170332516
C           6.75504428668948    1.88011354148902   10.86271095582135
C           5.61295395922662    1.33427346885515   10.29579787135281
C           7.66386193287495    1.31547288761807   11.79309059991325
C           7.57789784842000    0.07408825874107   12.32051157191283
C           8.53753168713414   -0.41570864744443   13.25409007966674
N           9.58264310939190    0.20191575024091   13.72761719224878
C          10.17834951883635   -0.68485197927056   14.58281686590987
C           9.43428080879245   -1.84189673713607   14.58517737729943
O           8.40235906797807   -1.67912081967224   13.75250498585093
C          11.39084904447065   -0.36695548835786   15.32055725336784
O          11.94864277016950   -1.11261978950054   16.08549450031288
H           1.46020316453859    4.70583627997303   -3.20110010332538
H           4.68402105318445    7.20017102277665   -3.47365721736065
H           2.50852823225686    7.62231219886615    1.02751069808113
H          -1.27058321214789    6.33897512838870    0.53551478578732
H          -1.72187950327682    7.64654542755796    1.66287791638925
H           0.94671304954515    5.03504462110263    1.01081827215200
H           2.01647718760832    5.68456981567150    2.26423110845826
H          -1.36920285750190    6.35397019013067    4.48795220220816
H          -2.00468346963827    4.73740475362038    4.47233987784096
H           0.31539937864441    8.32240929940537    2.93063330513024
H           1.77154026485040   10.19404327475118    4.59485717053006
H           2.04225602736486    9.47845974874332    2.99838959251880
H           3.98210568497176   10.89146521430852    3.73703417564898
H           7.82646355782307    8.80118936990148    2.64278818354704
H           6.53083052986359    8.48120170200002    1.44560890938746
H           6.76591337434020    7.36789905688240    2.80751036820091
H           3.66824669360979   10.41798184812066    6.16973490953869
H           5.33972872406938   10.19359115754311    5.64165335592246
H           4.31952896166273    8.36015856941077    7.17436024674829
H           5.21416255646199    7.83525239150292    5.75944716799099
H           3.80767336679247    1.40749767381220    7.78655137005487
H           2.84325120827020    2.03875288282736    9.12000216442590
H           5.26771132530973    0.34198205649801   10.52039933956918
H           8.49406336690381    1.93498785861719   12.10304527055291
H           6.78306400708035   -0.60899404964114   12.06478459125690
H           9.54465660723188   -2.77123150216223   15.10475010037291
H          11.76543467150255    0.65037744067096   15.11021266800179
