79
 SCF done       -156.908602732083          0.000772199758
O          -0.71457038251998    7.46364562867042   -1.56765522447710
C           0.34914481928670    6.63413651112514   -1.36398845045511
N           1.02240702268243    6.42794608562977   -2.45586086904981
C           0.38988643334471    7.14576237978214   -3.43593573494676
C          -0.68485048258962    7.78020788247634   -2.86247763977750
C           0.85605132547907    7.16477289396637   -4.81405483856220
O           0.33642639084885    7.78192240230400   -5.70829797960653
C           0.57182582073800    6.12200504402708   -0.02350058251417
C          -0.31631855287731    6.52596131764407    0.95459640622655
C          -0.19577576582115    6.09303995938971    2.28305180724256
C           0.84819451020083    5.23384946287409    2.60032587735067
C           1.77104389664015    4.79766451592962    1.64633392441675
C           1.64188089170617    5.24335234156077    0.30316022021259
C           2.57514989826894    4.80151475184384   -0.67102012482251
C           3.58464579226109    3.96029040234798   -0.34174917673084
C           3.75480280624403    3.48711680256491    0.98747143447029
C           2.85292639053063    3.90174958155345    1.99514736398753
C           3.06077664632250    3.41462674601621    3.29572564424869
C           4.09943627797591    2.56303161903333    3.58414524782124
C           4.98289553622726    2.15625823837704    2.58388346968327
C           4.80954111013367    2.61517498791844    1.30423054637104
C          -1.16202428816268    6.56002779038973    3.24718823869429
C          -1.18198253160330    6.29455042781840    4.56854181899792
C          -2.17342957734963    6.79074674956166    5.45774464141874
S          -3.48840264728290    7.79574287294068    4.92318011777263
C          -4.13298990595737    7.90635153595394    6.52715217762765
C          -3.35590487314699    7.18466305277814    7.43307400774974
C          -2.25264417745189    6.56666354703653    6.82496735719881
S          -0.97987676834977    5.66725249790349    7.64567583313433
C          -1.41849344413058    5.48359355953259    9.34828724508129
O          -0.58705029109076    5.01606584332843   10.08176875875131
C          -2.77428773589730    5.84699699585805    9.88482742351608
O          -3.13188678498746    5.40237258445857   10.94749113931702
S          -3.84123252420049    7.02604025598013    9.11041771745568
C          -5.29777875262463    8.64653321417433    6.85192372134222
O          -5.62021177779398    8.73337845827025    8.15661088004676
C          -6.76266394424018    9.45544493964385    8.28805239830786
C          -7.18817764903786    9.84936061988925    7.02883189167189
C          -6.25509399893426    9.33745606190672    6.11153016677339
C          -6.31362672430058    9.50882889375079    4.63790409471396
F          -6.35413470145402    8.33668126112082    3.97336458004314
F          -7.39760819230931   10.19477527424139    4.25460935095535
F          -5.25106382602265   10.17559479986300    4.14268931056855
C          -7.28444621993619    9.65400137583194    9.58988867826410
C          -6.59984484986382    9.16312816242599   10.66459331022421
C          -6.95001511904023    9.17799107885201   12.01858149045725
C          -6.12156237474381    8.60382417669564   12.95835795898561
C          -6.33887865594061    8.42689939360760   14.34676795442724
C          -5.33952093065682    7.75974628002222   14.99019188580938
C          -4.26531699196681    7.38712440822333   14.14887541935600
S          -4.56777729789299    7.92074069156490   12.51291686927294
C          -3.11655749882682    6.68565620730781   14.44417771471156
C          -2.73752110887594    6.10145192959063   15.68714041886352
C          -1.57084236228408    5.42190986588565   15.64216404532859
C          -0.93830207085756    5.42120293749670   14.35233721303490
S          -1.91530656577077    6.36776132561431   13.22109915951181
C           0.19781609204949    4.81379774572646   13.98544552566132
H          -1.43622063484793    8.43169102227799   -3.25887216378430
H           1.75587242549573    6.54364427647970   -4.97128314740300
H          -1.12437587628282    7.19318015780411    0.69506913999622
H           0.93834907168852    4.89493538763569    3.61801363784900
H           2.45659882253595    5.15399565602929   -1.68133437017435
H           4.28706506506541    3.62981129802202   -1.09334905712068
H           2.40271213594780    3.70332056471507    4.09960913761233
H           4.23381582449123    2.20451097844107    4.59404433851848
H           5.79527183973851    1.48596715114415    2.82199073498449
H           5.48466982347507    2.31327090417083    0.51635476105034
H          -1.94593608602789    7.19455249454216    2.85046620246196
H          -0.42617064331921    5.67710181238697    5.03340860648711
H          -8.05568365658809   10.42985704013785    6.79260386951993
H          -8.21802499273440   10.18460419557335    9.68580004148333
H          -5.66021201089709    8.67325488496608   10.44210229825499
H          -7.88687926801908    9.61094415659816   12.33901359563950
H          -7.23611652558875    8.78195821169178   14.82296316966720
H          -5.34620949302390    7.52623087405561   16.04020702231530
H          -3.35483031352291    6.19804817929047   16.56297871341845
H          -1.12802717630180    4.90000830947079   16.47214130313262
H           0.77382047585993    4.24331625345745   14.69344656384752
H           0.55583187837369    4.86518982117255   12.97296376607570
