75
 SCF done       -160.756317622080          0.000882769298
O           0.19585231135699    2.27968550630845   -7.81777022034212
C          -0.19741386916820    3.33830708864255   -7.06612611600039
N          -1.21774069611247    3.07635958650982   -6.30524121756023
C          -1.52933299193248    1.76973303594230   -6.55596689012484
C          -0.64233588132437    1.29375275085066   -7.49543004997317
C          -2.63032816779349    1.08543979038409   -5.88446236206966
O          -2.93509949968451   -0.06288043110863   -6.07004019018851
C           0.51272702475641    4.57850484081981   -7.15733164317963
O           0.12481148309416    5.62558045781354   -6.42033864719382
C           0.96808535273112    6.65078079542177   -6.66787201715327
C           1.92350149196306    6.25797999234710   -7.58710662680122
C           1.62786550062371    4.92155636709225   -7.90744489984880
C           2.36423317216472    4.05472874928373   -8.86807880188378
F           1.58298965327032    3.61182749373609   -9.86754901458647
F           3.38377146235443    4.70664288389552   -9.44332495772901
F           2.89042763794102    2.96396181271480   -8.28542312334853
C           0.79246076160906    7.91183753291754   -6.02322346399018
C          -0.26506142649880    8.20745854858914   -5.23825128810966
C          -0.43780578505705    9.47049324819266   -4.60239180261178
O           0.52609118146359   10.41170575225655   -4.64706646945927
C           0.08990463071125   11.50349021149000   -3.97984203872766
C          -1.18432875835788   11.27840381216165   -3.49798549895145
C          -1.52039904968599    9.97116584339687   -3.88923693150720
C          -2.79261842772710    9.25614551830377   -3.61090777720422
F          -3.44426472320268    8.90727273655703   -4.73744407217812
F          -2.60210574770618    8.11103500969939   -2.92841842895958
F          -3.64404648316564    9.99480461692337   -2.89010173069279
C           0.92578967771814   12.65693000324880   -3.83499779447013
C           2.21602157857385   12.69290589694303   -4.20566356142696
C           3.11310164789997   13.81899076502550   -3.98935386065491
C           4.35916220928868   13.54107019254161   -3.46557519669686
C           5.24176130932179   14.56308190935913   -3.08494480170389
C           4.85090914654311   15.87991545025644   -3.28433288880164
C           3.62900265935277   16.21060089504700   -3.87670644321360
C           2.74667612071921   15.16550196714527   -4.25550088356821
C           1.55473452293432   15.48389031780619   -4.96103721069486
C           1.21468693111813   16.76849171119986   -5.22057190467459
C           2.02844287375778   17.85094460051580   -4.78801924383382
C           3.24590806942261   17.58415315456115   -4.11906400466611
C           4.02730231363572   18.68149609918075   -3.72367650945050
C           3.62892161470563   19.97165402501196   -3.97612408894332
C           2.42859662500112   20.22667234100025   -4.63993555892225
C           1.64175739679294   19.17762538061844   -5.03856513904231
C           6.50599051546858   14.19926252142872   -2.48682997541858
C           7.35843306793499   15.02879771381011   -1.85874153448998
C           8.58477372288641   14.61799323625978   -1.25984174919161
S           9.16713249967786   12.98167260860354   -1.31671310898663
C          10.56261525893340   13.38951169999337   -0.41469970983256
C          10.59258806241869   14.71359126633646   -0.07800035154470
C           9.46827813340546   15.41947924816975   -0.55752737057451
S           9.14706658992929   17.13462149052007   -0.34158449619115
C          10.40088447170404   17.82847447064670    0.68741272705047
O          10.29452598846734   18.99493064802448    0.94988781299794
C          11.58831160722555   17.05767009866923    1.23423045933853
O          12.37144643538524   17.62590173533695    1.94364767701955
S          11.93132599139114   15.36483288355797    0.86331770205348
H          -0.52918147116215    0.33955042554514   -7.96764700902483
H          -3.16534775184879    1.73634797138127   -5.17229618840012
H           2.72444417057352    6.84613855825175   -7.98463183298590
H           1.55904923798643    8.64830553032393   -6.21049466768913
H          -1.04172578619948    7.47530193282294   -5.07646278131815
H          -1.79232810360420   11.95470197525139   -2.93378644667929
H           0.45825225638281   13.50460462583998   -3.35596275725142
H           2.66567553503837   11.79348729547501   -4.60673297280060
H           4.64220161358407   12.51220192049362   -3.29276254775563
H           5.52990059483922   16.66441490052316   -2.99791069938034
H           0.93526408878685   14.67783293267243   -5.32198901105919
H           0.31251335277812   16.99666656939801   -5.76973336878630
H           4.95974779056723   18.52841838092574   -3.20439844288641
H           4.24863910217654   20.79629063770174   -3.65659172745233
H           2.12626878924238   21.24465461322700   -4.83473660722777
H           0.70805183877409   19.35613478063884   -5.55234944303022
H           6.76092519600316   13.14682771893681   -2.53362111317870
H           7.14100563699579   16.08240077843823   -1.75276104541875
H          11.29192671091194   12.64428057024485   -0.17195404881691
