90
 SCF done       -156.378570898980          0.000535138328
N           2.01149855547242   -0.28116801693298    2.75221626967382
C           2.95121569353873   -0.24840192558368    2.09235036041324
C           4.11240630596181   -0.20302175068172    1.31411591382546
C           4.93592973204336    0.86583054331874    1.16110637389922
C           6.03278982573969    0.49175367047912    0.27629748818966
C           7.01720134282638    1.40367228257299   -0.21441134606206
S           7.60339442716666    2.65322150373598    0.88339813901029
C           8.63973619370607    3.21706279181022   -0.34642177671843
C           8.51431747559795    2.52128365543099   -1.51617352893092
C           7.58823177275536    1.46973768338757   -1.48325879884559
C           7.19198842609479    0.66925844422618   -2.68621756800912
C           5.71609150696353    0.26315496809225   -2.67919196019221
O           4.78390389132941    0.94307539374874   -2.37186493767818
O           5.58911635550134   -0.99960489444332   -3.11702594251463
C           6.83014306312192   -1.51095205087461   -3.59496466434621
C           7.91009730959354   -0.67234270739240   -2.88867829464032
C           9.24908144856314   -0.62559128389019   -3.61537861124762
C           9.11490786159690   -0.34244774181240   -5.10528331550268
C           8.18268401120239   -1.32200313473189   -5.80718953006897
C           8.60851535527110   -2.78829501521298   -5.86726026188519
C           7.27530721766403   -3.50675677087630   -5.98844944005403
O           7.07308752707250   -4.62923875589687   -6.34424547720057
O           6.28079544342382   -2.67326607260447   -5.62733821600014
C           6.80538871073727   -1.44272522121726   -5.13852863670292
C           9.53221695489922    3.38845551551510   -2.22186328923862
C           9.66992447973548    4.17105601928095   -0.87810439281384
C           5.89055651670903   -0.83399393509076   -0.02803464907284
C           4.68203804949416   -1.32705032373006    0.55030230821103
C           4.12974651023004   -2.55814929198002    0.31585532421013
C           2.80416777521155   -3.01681926053405    0.61335452808712
C           2.59385760372012   -4.20195355738865   -0.03399537289016
C           1.39720504102824   -5.00409655893862   -0.12843711702123
C           0.93161726101428   -5.53634115596635   -1.32326936057650
C           1.35139330685574   -5.12328643017263   -2.69016618446136
C           0.18765655169701   -4.40598883827447   -3.40765666750182
O          -0.59250914716990   -3.65201577907061   -2.91277616824887
O           0.15892208766785   -4.76844822255440   -4.69399780055070
C           1.27698976411032   -5.58433732971057   -5.02709508475180
C           1.68921599122686   -6.23262333051874   -3.69481260575488
C           3.12113980137392   -6.75236686684699   -3.69246076249305
C           4.12759541928867   -5.69405801969424   -4.12651793004114
C           3.81536615442299   -5.12045037246903   -5.50156546053955
C           4.04659742106634   -6.05110315493337   -6.68817867262765
C           3.04607276855165   -5.54695112176777   -7.71112178637682
O           3.00463512232995   -5.79453579837124   -8.87859495822297
O           2.15074776489389   -4.73801762887971   -7.10914380307711
C           2.34986921956326   -4.69302822602105   -5.70256081537176
S          -0.47836182241226   -6.55339130889254   -1.14045942130679
C          -0.43228876381455   -6.27185034124367    0.55088505044936
C           0.57178674227768   -5.43844631282045    0.93060123270672
C           0.20321465607681   -5.53866512666538    2.39140651003699
C          -0.94635669397404   -6.49680965391615    1.94395742589440
C           3.82875210493449   -4.59334662825286   -0.68476832842619
C           4.76165266711055   -3.62424231091639   -0.48193236342629
C           6.06545265164557   -3.68657307888226   -0.96711820791638
N           7.12082431364447   -3.77964010397095   -1.41909751385452
H           4.80364926523067    1.84621393911837    1.58029685102200
H           7.33958789525857    1.30797517482103   -3.56582137948107
H           6.88416724844972   -2.56337097120105   -3.29784538948420
H           8.08933243435551   -1.11807842088940   -1.90530745410414
H           9.75051710557472   -1.58340162766778   -3.46861536372113
H           9.87125843861031    0.14074599764355   -3.15069422250182
H          10.09873172698564   -0.38944481501672   -5.57419445632189
H           8.72840585327239    0.66762510985994   -5.25772656044307
H           8.02370446475952   -0.97332149374809   -6.83418364604623
H           9.08902684992636   -3.11961285074795   -4.94514147922333
H           9.25815221917236   -3.03252543785161   -6.70458175022211
H           6.11200865191771   -0.65338397460192   -5.44377909840676
H           9.13685768512411    3.97791483358181   -3.04627112569917
H          10.43714582168523    2.87273373271464   -2.53727506404152
H           9.35472206544662    5.21183634481939   -0.91832416412414
H          10.64797260292666    4.10594140496831   -0.40498706283833
H           6.55404113705795   -1.43499996399634   -0.61163605223294
H           2.08105373137475   -2.46232040562250    1.17818988569135
H           2.16872082650364   -4.39875452424773   -2.60889832285554
H           0.92997019967005   -6.31855109285377   -5.76041817118795
H           1.00832340000451   -7.07125116068880   -3.50312387706831
H           3.17528861120370   -7.60790090601328   -4.36854356044383
H           3.36544791034801   -7.11949947337541   -2.69385660136765
H           5.12958217220991   -6.12484827631129   -4.15237263605348
H           4.14720050908749   -4.87243295064912   -3.40817435800642
H           4.44041999749617   -4.23444312529919   -5.64844110354107
H           3.81823701358730   -7.09385699165057   -6.46188346355983
H           5.06261440688258   -5.99518144363019   -7.07417052858889
H           2.17431354124761   -3.65957497980353   -5.38598052325282
H          -0.13296460382623   -4.60596187173011    2.83779691253226
H           0.95781631486600   -6.00116213909673    3.02410961180580
H          -1.95250889551995   -6.12595366202707    2.12912886555535
H          -0.86007621840169   -7.51851851340140    2.30983074804690
H           3.98088188832318   -5.53090252400593   -1.18545136135083
