108
 SCF done       -203.333559925633          0.000554531734
C          -8.43171873715990   -0.09068774692272    4.14066545260977
C          -7.14806422023329   -0.79452933974130    3.98392075433507
O          -6.31251784918704   -0.58779100108942    3.10489197918465
C          -7.09182920478285   -1.78261812845166    5.05676767694992
C          -8.30235221745698   -1.74329459684136    5.78114699750506
C          -9.17780235979081   -0.70570846362948    5.21790025192661
C         -10.44963997443898   -0.39697961896148    5.64860157079790
C         -11.36654902959677   -1.32410553798542    6.34962697929325
O         -11.23403808239784   -2.51615127943011    6.53295918257931
C         -12.58266945552704   -0.54230154298438    6.67570211912578
C         -12.44681292802384    0.75782524084768    6.18629191605777
C         -11.13951017412107    0.90047157939956    5.50603430696713
O         -10.72105893039560    1.93256236012942    5.01724328222429
C         -13.44760744063530    1.69468428945868    6.36355488338130
C         -14.59471466666536    1.30064708271962    7.04044428914531
C         -14.73109790016241    0.00666333836558    7.52506517223324
C         -13.72617427707834   -0.93538173088909    7.34461941514278
C          -8.42551419620151   -2.53690460864545    6.91043962017455
C          -7.37485260498191   -3.37787729116191    7.26053171630643
C          -6.20207485951396   -3.42471596006885    6.52323487670041
C          -6.04200476361146   -2.60730501868844    5.41271559983224
C          -8.78849764461894    0.90658026305193    3.26768622011692
N          -7.94357905850810    1.26643975103105    2.29027398417158
C          -8.10731080901371    2.25003916004891    1.38113940646172
S          -9.53525837416937    3.23318545794666    1.33682884111401
C          -8.85786033779267    4.11159293259052    0.00008832202511
N          -9.61728508979466    5.14364756451617   -0.55930505296581
O          -9.13115268752431    5.76441254941633   -1.48857049548834
O         -10.71779979257929    5.34615264427163   -0.07384520362778
C          -7.61733017155560    3.67404358490669   -0.37793344036530
C          -7.15533290825377    2.59444124285064    0.40247823955065
C          -5.90984767541117    1.91154342199387    0.24291692529095
C          -4.89032630532489    2.34329927776580   -0.54803151724132
C          -3.66635101134343    1.67244856652330   -0.73709160374254
C          -2.47002755428555    2.24572742743353   -1.17411813424000
C          -2.16381643590586    3.55692845503557   -1.59538041562318
C          -0.87564880831771    3.87119729464702   -1.91020939984798
C           0.16663972863982    2.91627142838018   -1.80488776524082
C          -0.08213402836061    1.63672266172637   -1.41159222024382
C          -1.40875346285519    1.26588640954233   -1.09874417933197
C          -1.93342497923029    0.06992969864164   -0.63015807425043
C          -3.38632094530208    0.24575819058163   -0.49683635030679
C          -4.28647245043082   -0.74296526404547   -0.52165305079617
N          -1.25793999109342   -1.11252915887476   -0.51191368243054
C          -1.50842572592650   -2.08778214984910    0.38744313464209
S          -2.33951187611019   -1.76627184546889    1.88369376741888
C          -1.98950043511486   -3.39271402748695    2.40539361089338
N          -2.46039290469514   -3.79136083439029    3.65038972074913
O          -2.23961610085948   -4.93529477016262    4.01361629321215
O          -3.07222518949104   -2.95490764159203    4.30376128975876
C          -1.27611373788069   -4.11994864841868    1.48966948523143
C          -1.01389855661662   -3.40397065118991    0.30874288424924
C          -0.35981337041220   -3.98085063500355   -0.82597055108999
C          -0.44298681925054   -3.54716278031330   -2.10636832416550
C           0.27620484978093   -4.17685165495402   -3.15167976981216
C           0.32068254993984   -3.79362320826731   -4.45364354988973
C           0.72940620408720   -4.78680270473099   -5.48562555063514
O           1.37777122989018   -5.79204244900128   -5.31139915335152
C           0.09996282459006   -4.30604549668877   -6.72947272551032
C          -0.49161503642355   -3.04606264385556   -6.50624295606965
C          -0.15278945258073   -2.60609143231667   -5.14428687579188
C           0.05949688905513   -1.31381584744503   -4.74103937360643
C          -0.19208220604655   -0.08318369844733   -5.53173661270210
O          -1.08778693712622    0.13780198081170   -6.31523280685737
C           0.84194969070753    0.88737459888783   -5.09888462839007
C           1.51376895405050    0.37619165075899   -3.98527264166209
C           0.89832177031402   -0.91176985826584   -3.59292988033523
O           1.04686816843043   -1.45589510208707   -2.51391925838143
C           2.57210529306536    1.05823362866337   -3.41490506163662
C           2.93777137617236    2.27559377303559   -3.97491398098168
C           2.25232245279195    2.79714537402655   -5.06383186742090
C           1.19264764022248    2.10850260258233   -5.64109493153143
C          -1.22865355996284   -2.45811858857176   -7.52080622782122
C          -1.32430709722906   -3.11298902163311   -8.74309621788579
C          -0.70976791256776   -4.33604049280769   -8.96392340648962
C           0.00564828827313   -4.95194476590747   -7.94646457101115
H         -13.33364058850587    2.69660523778303    5.97919417523006
H         -15.39455599935706    2.01047976010452    7.19117826399955
H         -15.63282436123037   -0.27051401784939    8.05095722322460
H         -13.82261950406333   -1.94332092935174    7.71812391858348
H          -9.31466993974109   -2.52535323806231    7.51601811316164
H          -7.47808792373562   -4.00288681962006    8.13532277851213
H          -5.40148241976475   -4.08533467451591    6.81849828587756
H          -5.11765415245480   -2.59130976291177    4.85604265325676
H          -9.71788255676951    1.45283501107741    3.34848092632137
H          -7.06304172860166    0.71277811019538    2.28848484545818
H          -7.08405830596012    4.11735238365836   -1.19831012078197
H          -5.76112630882417    1.01687198833208    0.82907936287896
H          -4.97690735503519    3.30685198177330   -1.03117895253288
H          -2.94563518853918    4.29746407248776   -1.66612850441101
H          -0.62580900575189    4.86926087054277   -2.23783339866249
H           1.17386929283100    3.22576753255061   -2.04023833015103
H           0.71404293333504    0.91457257691461   -1.31574560389003
H          -4.00020524163039   -1.78036664429380   -0.47099771989373
H          -5.33720489892047   -0.54359878887877   -0.63486303452019
H          -0.41104322119588   -1.22891420089964   -1.07157466417290
H          -0.98554423420102   -5.14074291411366    1.66071310950120
H           0.23539133040404   -4.86035901454117   -0.61701045607897
H          -1.09927223650383   -2.73534277469425   -2.38201356882764
H           0.78490150820616   -5.10593576433247   -2.91737724334630
H           3.09887963924798    0.64959093444510   -2.56582447859344
H           3.76569728384160    2.82733880552908   -3.55432949800103
H           2.55302657483806    3.75064250961766   -5.47184305767317
H           0.66265786923520    2.50203593251950   -6.49452043037545
H          -1.72967916675877   -1.51632731716877   -7.37254029128615
H          -1.89690579059347   -2.65598133328906   -9.53648661848589
H          -0.79822023606392   -4.81626348308812   -9.92686238689524
H           0.47890733438012   -5.91173427543980   -8.08611395570715
