108
 SCF done       -172.050483116362          0.000505017671
C          -3.64141210316792   -0.97664279308763    7.37360168083290
C          -3.44147628209008    0.37571642457980    7.07072413012313
C          -2.55998586466057    1.12605638571650    7.85932249953923
C          -1.87948398525975    0.52198257499373    8.91871526221262
C          -2.08882189731212   -0.80985904399149    9.19128715878038
C          -2.97429962243195   -1.56282931824415    8.42107551842728
O          -2.33270650007092    2.43983297047459    7.63794086702230
C          -3.02020612199028    3.08969671931872    6.67354410764806
C          -2.67554043217313    4.54189553787838    6.59702620024249
C          -3.93584729051694    2.46687512705737    5.88304715353350
C          -4.16919585725381    1.02215838269861    5.98369000907599
O          -4.95312943215964    0.45480452091868    5.22890729336090
N          -4.67084920786456    3.13252993930044    4.89866734517496
C          -5.38301283840995    4.29939773850829    5.20029767950495
C          -5.56320177211830    5.32991957439841    4.33021254633029
S          -6.39918352625422    6.65095800315703    5.04306182955841
C          -6.52107964537414    5.82104700199424    6.54501268826122
C          -5.96338618572693    4.57766361486839    6.48960954618164
N          -5.96407757993771    3.62514719075834    7.48970648302094
C          -5.83969085613802    3.82301019624042    8.83001102983923
C          -5.55642861709480    2.80134446447339    9.67372746535909
C          -5.38604537888974    2.92725222868102   11.06679279205082
C          -4.98837125658803    1.89995015180009   11.87621207844551
C          -4.77611968217359    1.93370445492213   13.27770250662869
C          -4.35061489559729    0.75879274287210   13.81188325450971
C          -4.19131165935383   -0.28325722203882   12.86579952468096
S          -4.62775226078282    0.28299491585992   11.26474722195719
C          -3.74948053706036   -1.56611138089493   13.09242291211067
C          -3.34700237154322   -2.14045374071238   14.32304215022440
C          -2.94076124258462   -3.43259062022372   14.23782195500924
C          -2.98661913820726   -3.98051441911398   12.92328469940022
S          -3.57292672361601   -2.74222439332642   11.80283755682064
C          -2.60314086406052   -5.20074262733713   12.46051983182952
C          -2.20146274194026   -6.33676036623184   13.24846444881530
C          -2.72715119258294   -6.58992580778431   14.52612071990009
C          -2.29534422299806   -7.68444138531231   15.23197776982602
C          -1.33315174261887   -8.55672056855212   14.69390751591348
C          -0.83418240860995   -8.33940504105748   13.41691849224085
C          -1.28026456299826   -7.24582011643256   12.70493008646214
C          -1.06481345224018   -9.59835650016843   15.66122229916485
C          -1.86786523839068   -9.37727764301255   16.79307407842150
C          -2.72390117999339   -8.14614499671578   16.60563579866527
C          -4.22312637492025   -8.49697560758706   16.63581771710343
C          -4.60428428984035   -9.55106684184174   15.60349102262773
C          -2.42274312215662   -7.08118073031533   17.67565018701874
C          -0.95609531018647   -6.66735719241766   17.69872317909853
C          -1.80993154218853  -10.22971596609682   17.86732551411204
C          -0.93871019524457  -11.33051696356115   17.84450225003860
C          -0.14387022106252  -11.53321958046890   16.70929273271292
C          -0.20026973448605  -10.68272874443815   15.62335893887229
C          -0.91992190166038  -12.20188686082573   19.00103382998745
C          -0.10529082688820  -13.25313815498908   19.18696543055121
C          -0.10059241790379  -14.13409399641470   20.34037656114233
C           0.92092184642153  -15.03016026142949   20.49243582881151
O           1.01701470817335  -15.91274579208842   21.50607836667601
C           0.05164074714275  -15.95660041630166   22.45197799322375
C           0.18205430271368  -16.89774411499804   23.47452630935470
C          -0.78316652930683  -16.97176225332856   24.45354834959415
C          -1.88280597121677  -16.11634670426765   24.42915602356432
C          -2.00907828959722  -15.18782732522181   23.42257504225672
C          -1.04318487058538  -15.09254779984028   22.41656384177222
C          -1.18179484360070  -14.09778394574765   21.33883490594009
O          -2.13247303277304  -13.33179459188728   21.31163332131535
C           2.09431365232783  -15.16065196532482   19.56827726906389
H          -4.33542459281380   -1.52964610162420    6.75893889827552
H          -1.20766509854003    1.12296308210542    9.51085984635663
H          -1.57136016267989   -1.27506380443282   10.01569415183027
H          -3.13686360651209   -2.60193142195577    8.65911100125134
H          -3.34138711842912    5.13464064387089    7.22510691789585
H          -2.76208101750747    4.89364469852235    5.57298589417196
H          -1.65838556163649    4.68352060507841    6.95354173056047
H          -5.13747678012369    2.46679205249630    4.28803104651911
H          -5.24541761484897    5.38633639939082    3.30924294635628
H          -7.02658395002294    6.28557195155348    7.36647313838139
H          -5.82287356428045    2.67259229249699    7.17908569745055
H          -5.95751791436193    4.83953432512481    9.17408668842215
H          -5.42428824799502    1.80915118750059    9.25728134344354
H          -5.55929547560654    3.89295551070190   11.52242492213688
H          -4.94554390919666    2.83348000861105   13.84336955832815
H          -4.14102265730490    0.61007891211825   14.85618501571239
H          -3.35978288158550   -1.57348447933446   15.23733721703235
H          -2.55484495783934   -3.99490837415594   15.06839025750685
H          -2.56651273073572   -5.33202960236326   11.38671288711456
H          -3.50063268574444   -5.94990637185197   14.92211654676259
H          -0.11134888109370   -9.01585462367540   12.98489573022461
H          -0.89725716428364   -7.06137204424876   11.71116314035039
H          -4.79930769316581   -7.58689755821844   16.45382767065616
H          -4.47666124092538   -8.85982540344587   17.63416283736168
H          -4.37455544544034   -9.20457261537352   14.59812071339144
H          -5.66972497454697   -9.76253464873851   15.66026215163085
H          -4.05955013026468  -10.47568831127227   15.78083495938357
H          -2.70195078482788   -7.47866508817354   18.65366718063687
H          -3.04548788014721   -6.20451531336503   17.48217189934346
H          -0.32074595959595   -7.52458651668454   17.90997916503916
H          -0.78912054472332   -5.91657197498670   18.46809254228657
H          -0.65868752090923   -6.25053121271520   16.73865441613284
H          -2.42912773021831  -10.06751471633818   18.73816548585010
H           0.52731708921759  -12.37788605931598   16.67258407578247
H           0.42026552800296  -10.86115086180854   14.75714973887519
H          -1.63872893931835  -11.95788988102323   19.76864303556791
H           0.62556678560462  -13.49447329244763   18.42852047222689
H           1.04051549517145  -17.55096847883679   23.47489240051126
H          -0.68565321732587  -17.69954341379767   25.24495196817680
H          -2.63303136654586  -16.18563650084035   25.20189810819882
H          -2.84817347740660  -14.51035669797468   23.37513159597559
H           1.77408234616365  -15.48083757878267   18.57797413277936
H           2.77415479558483  -15.90633943962585   19.97267947189886
H           2.62133402696111  -14.21363635003990   19.47292060058137
