86
 SCF done       -161.200286375985          0.000540984793
C         -11.81592632836952    0.06755471687550   -3.49933674295303
C         -10.82758648124831    0.46918924893483   -2.59420122228157
C         -11.18424030773749    1.27327265834038   -1.50524695670398
C         -12.51198558397897    1.66882158528263   -1.33113466053616
C         -13.46701191226556    1.26050297524579   -2.23477548344554
C         -13.12173890113740    0.45810498094762   -3.32157877959753
O         -10.27652799395098    1.71389402782150   -0.60487024472223
C          -8.98861428064649    1.32700527123355   -0.68485236393273
C          -8.14000336034510    1.97398812651997    0.35676757699670
C          -8.55683553081454    0.47516918275699   -1.65440082599309
C          -9.43792138014092    0.05836434713751   -2.75355990652236
O          -8.99335622047087   -0.57132090000560   -3.70533307347467
N          -7.24662718247161    0.03267194424829   -1.82216207093268
C          -6.42845818618239   -0.51553053594881   -0.89206389675107
S          -6.96336934075733   -0.88684026799803    0.71428336294467
C          -5.38877766822512   -1.52666985196359    1.08139892174171
N          -5.17647603414861   -1.97234487352570    2.38171745992658
O          -4.08081340162665   -2.42781379814941    2.66241452954897
O          -6.11837345190316   -1.86890200172123    3.15710132980293
C          -4.52369522076995   -1.47597997987761    0.02129601696862
C          -5.09540628944349   -0.89862674483836   -1.12894914743656
C          -4.43173037194770   -0.67641536182113   -2.37711276579679
C          -3.15435193524496   -1.04427520596454   -2.65601370336013
C          -2.51750399731223   -0.78322251365509   -3.88399302455543
C          -1.22025258611500   -1.12471217594861   -4.16303669356102
C          -0.50224224444181   -0.86158820212842   -5.35734756974049
C           0.78900980835948   -1.28941887766619   -5.34227914452426
C           1.16977167610605   -1.92614315025586   -4.13816193180486
S          -0.17795329578677   -1.96367532298295   -3.02117001998682
C           2.39953148307259   -2.45789719832796   -3.81087479104965
C           3.58282843097007   -2.44974800688920   -4.58647907415973
C           4.65127035387347   -3.03816310613035   -3.98612891333352
C           4.36923976181623   -3.56145428317009   -2.69415128252059
S           2.68644259760149   -3.25868613482346   -2.27825957454098
C           5.19361179133713   -4.21607144945457   -1.82579513555500
N           6.50873880397699   -4.44371672499174   -2.08149151727073
C           7.37933131923383   -5.12114535692943   -1.30336642645377
S           6.88002121596499   -5.95876400656593    0.13125036342143
C           8.51438105823293   -6.51868509665010    0.34808930785867
N           8.78244762332076   -7.31398141973010    1.45344389907294
O           9.92897700310716   -7.71056034939173    1.60802233819349
O           7.84358769229877   -7.56337881020336    2.19864617633550
C           9.37532328810021   -6.08152622258247   -0.62841229622067
C           8.74964974691294   -5.26977004281501   -1.58329361011267
C           9.36975529155500   -4.61446907431879   -2.70472113735033
C          10.57561293706943   -4.90575504031698   -3.21643649370816
C          11.15023091042764   -4.23381351156869   -4.36805404386682
C          12.49093053450920   -4.34350309741033   -4.61401000790850
O          13.11588073837757   -3.77846278067837   -5.65988654011031
C          12.41000001140953   -3.04089223541386   -6.54750012582923
C          13.10390643133579   -2.46194915537033   -7.61106785687679
C          12.41905666516638   -1.70356889539238   -8.53370899786147
C          11.04394961922289   -1.51288298237077   -8.41254417269982
C          10.36060972331486   -2.08289298931264   -7.36450154594965
C          11.03261191674704   -2.85663906476394   -6.41297384581685
C          10.30352150229257   -3.46449082689229   -5.29120622881318
O           9.09137898949897   -3.32842409925619   -5.17531387880098
C          13.45460823493298   -5.08879989206850   -3.74408317085437
H         -11.51482499395759   -0.55371739794998   -4.32883116824478
H         -12.76177381598560    2.28897730673531   -0.48505648970948
H         -14.49342991292954    1.56489265000220   -2.09824697215267
H         -13.88205219660815    0.14617973875202   -4.02053946470582
H          -8.53518806745982    2.96649657447258    0.56136732508923
H          -7.11028863401452    2.04961407318065    0.01986958738826
H          -8.16296592564667    1.40664572989564    1.28764533547376
H          -7.11988717736575   -0.29859378325690   -2.78114706097495
H          -3.51373601214223   -1.83386991417449    0.09521224509473
H          -4.99542993757248   -0.16080204723162   -3.14307396937685
H          -2.56646553446495   -1.56106642822060   -1.91026350557612
H          -3.07598130696964   -0.26905581036852   -4.65528837590868
H          -0.96726535509218   -0.35830693142310   -6.18684312664961
H           1.47558791062790   -1.16952923478144   -6.16116870859466
H           3.61334908119465   -2.00371711566572   -5.56428983980302
H           5.62311149765073   -3.11192508806385   -4.44309296893673
H           4.82037236518133   -4.58017710662336   -0.88076301534921
H           6.88312210267967   -4.07444156652561   -2.94946807463886
H          10.41913208471819   -6.33497753112773   -0.61929152273972
H           8.80347912766952   -3.81939961984529   -3.16392469255113
H          11.16624222541599   -5.69517019685789   -2.77546033900250
H          14.16781128019538   -2.62180280748782   -7.68669864341028
H          12.95334892634460   -1.25384458058319   -9.35663163990777
H          10.51904056977065   -0.91692275598154   -9.14310463467359
H           9.29588323600415   -1.95343080032882   -7.24346085305062
H          13.22478803438769   -6.15317842295805   -3.73668291396641
H          13.41618384067960   -4.72209273365182   -2.72070098146197
H          14.45938891502731   -4.95142164700054   -4.13489591820394
