90
 SCF done       -151.806915052738          0.000374279212
C          -0.89356445674048    5.97819961793334    4.26031935860910
C          -1.40992541051703    4.91254478302669    5.02308491920166
C          -0.78818628169044    4.59492860696654    6.22056997522994
C           0.34765762065898    5.29179036719649    6.64391950813945
C           0.85915754287646    6.34338046462477    5.85697559575350
C           0.21571753898507    6.67970712968447    4.66250724980540
N           1.96816341566723    7.01259490351445    6.28986519993159
C           2.67428638011581    6.76539845821664    7.45392391188714
O           3.65052608428464    7.43165184317994    7.72733141772033
C           2.12215590865479    5.66554787627070    8.25335338368023
C           1.01582014121009    4.97773106696230    7.86026963127740
C           2.77942815482726    5.32735144410695    9.45617868964306
N           3.29288085498040    5.02492981724873   10.43578379329760
C          -2.58913018087079    4.20900883507704    4.55920689302496
S          -3.80969045288598    5.10045443249278    3.71772158093195
C          -4.78616280775794    3.69648617585161    3.57739921751782
C          -4.23223212467023    2.59730407654497    4.14708456035844
C          -4.89896752935619    1.26244485108466    4.08926625181431
C          -2.94849303707212    2.87706207610422    4.72572292177166
C          -2.06043998641959    1.92616443816635    5.32901781803148
C          -2.39337833490335    0.75962230928942    5.93465799866300
C          -1.43084134676411   -0.09417900500215    6.52347085314253
C          -1.72804304809107   -1.26456567538510    7.16162806028048
C          -0.75428627124298   -2.07133903361391    7.76816127312295
C          -0.97277232281633   -3.26600205408683    8.40656552722517
C           0.01347137895363   -4.05940293325271    9.03981967845752
C          -0.46138171219981   -5.19850163171036    9.61157239959351
C          -1.85674514459113   -5.37751034682790    9.47014002308491
S          -2.54403825692461   -4.04481635762032    8.56139567610787
C          -2.60916652396737   -6.41137039685478    9.98968314106922
C          -2.14880077337006   -7.47958103711872   10.79551230226447
C          -3.14058105452287   -8.27869950305929   11.26879674767034
C          -4.45324194709240   -7.87846586044184   10.89642313548989
S          -4.34983731736349   -6.51173486147974    9.80074182628665
C          -5.59029399212968   -8.49629329008913   11.35258716401986
C          -6.96199143382502   -8.19517596507189   11.21061978832075
S          -8.04183054435919   -9.57266359469312   11.36554993589269
C          -9.40378988467191   -8.60810476024479   10.95969551466900
C          -9.08562312777187   -7.30788158567705   10.73873580115901
C         -10.09240310285160   -6.25966515577674   10.39739642634464
C          -7.69170186212425   -7.03823380384237   10.91981188103349
C          -7.18311753152467   -5.70118591247547   10.88070075600354
C          -6.11305363331220   -5.24905550520207   11.57218366995135
C          -5.52272975225161   -3.97388896978681   11.33385640239117
C          -4.31293891849591   -3.62076248554233   11.81363590402426
C          -3.54626121094232   -2.47477467942172   11.38964003034832
C          -2.16564381062847   -2.43508722876164   11.67632598898659
C          -1.35538538498206   -1.43610981064682   11.19946096178058
C          -1.89609802727166   -0.41379618282950   10.41601680436452
C          -3.28144062936528   -0.40651348281695   10.14709947374957
C          -4.08288798867189   -1.43897540443797   10.63785355110493
C          -3.80222413569912    0.66456724016557    9.37187248266459
C          -2.99303176149442    1.64189144190784    8.88083187963562
C          -1.54827585504278    1.62763220570142    9.11904851419065
O          -0.75365111739454    2.44515997011579    8.69097951480092
N          -1.11829262335235    0.58622610057103    9.90553991293076
C          -3.52626536564584    2.70519595654683    8.12210393840361
N          -3.97874118186247    3.56603005993560    7.51420057222207
H          -1.38377530493039    6.24012424077490    3.33411163649993
H          -1.18499804699416    3.83071912937422    6.86858416987714
H           0.59807421309000    7.49182227456384    4.06144708890293
H           2.32725650964036    7.77206611560939    5.72221050066269
H           0.62335924425677    4.16882566637211    8.45920714213015
H          -5.72825091266318    3.76486370761849    3.06949741263747
H          -5.68592738681970    1.27592007151973    3.33820611737812
H          -5.35422143820548    1.01893634694129    5.04899114945142
H          -4.18161146491728    0.48468605684510    3.83470368052952
H          -1.01227461013248    2.20013840402722    5.31303251607660
H          -3.42578698254588    0.45972625210421    6.02762398721782
H          -0.39474180946637    0.21649076580886    6.46523979820450
H          -2.75683482097136   -1.60003803705156    7.21452144501119
H           0.27197710351425   -1.72567953381865    7.73157270303146
H           1.04662703608533   -3.75869396520555    9.05206397857454
H           0.15136973353399   -5.91139365278070   10.13312573521253
H          -1.10648756572246   -7.61700227394620   11.01972088550714
H          -2.98170039588023   -9.12487520056320   11.91413142042975
H          -5.40421693149731   -9.42855065940453   11.87684145409482
H         -10.37318113779728   -9.06453697361949   10.91352957810883
H         -11.08660714457758   -6.69564492224425   10.34386273040786
H          -9.85904745050808   -5.80672385461464    9.43420707135960
H         -10.09441838559080   -5.47402471662943   11.15196598821564
H          -7.71585628891191   -5.01071954331774   10.23935432555750
H          -5.62910338321866   -5.89468216135936   12.29221475875752
H          -6.03654992462470   -3.33801629640292   10.62650064247943
H          -3.80712404852386   -4.29983494789902   12.48897154502954
H          -1.73539008602423   -3.23005923721369   12.26801420361715
H          -0.29700911640999   -1.43657315196101   11.41529650106312
H          -5.13807304457478   -1.41405371658235   10.41640920248686
H          -4.86524030048778    0.69493900200297    9.17412692493279
H          -0.12225168155957    0.56600477668250   10.09479631613672
