107
 SCF done       -197.818587245017          0.000718278249
C          -9.02475428892264  -11.98422097492731    1.82007691133634
C          -8.32087160080233  -11.22072080750349    2.77197921963141
C          -8.47087686091228  -11.50251985517622    4.12157957777123
C          -9.31729469763258  -12.52920997438429    4.54480632213080
C         -10.02314462345010  -13.28313731631504    3.58120976157413
C          -9.85989932545017  -12.99606427163425    2.22033420510609
N         -10.85263109350589  -14.27829903435005    4.00248518703989
C         -11.09586461691466  -14.65095221117844    5.31480472690696
O         -11.86256861311904  -15.55364487060685    5.56231189313310
C         -10.34705132175765  -13.85518542209031    6.29715913359058
C          -9.50872985470757  -12.85468143856201    5.91761176386633
C         -10.52321092809682  -14.15885430131816    7.66563431795131
N         -10.64565842691676  -14.37222985546906    8.78479748692979
C          -7.46356509020018  -10.14504378805820    2.33992464054476
O          -6.81410928651257   -9.39660696682090    3.27181816414994
C          -7.14953644306773   -9.65551361431245    1.09411619632862
C          -7.36501886873272   -9.81695913020494   -0.34785754267300
O          -8.03210425099652  -10.61212489610400   -0.96171290050225
N          -6.60141753598920   -8.80605026232747   -0.91361584081298
C          -5.90872404969120   -7.99645534648928   -0.00767020158713
O          -5.19830157870829   -7.07465454522642   -0.31091891501189
C          -6.27171750481709   -8.55372105637363    1.29364040791091
C          -6.08960583989251   -8.42348532157217    2.65264619427255
C          -5.34769202668891   -7.47400922926555    3.41291169678231
C          -5.27231113957623   -7.52298878598213    4.75771244272089
C          -4.53510881944132   -6.58309742300877    5.56667780422383
C          -3.38273256171027   -6.01706012770438    5.09547178614579
S          -2.57369998175861   -5.00089172461906    6.20954911942953
C          -3.82194910664715   -5.29460556216470    7.38116421471142
C          -4.82820640624160   -6.15563353887615    6.91803223907808
C          -5.95453957159375   -6.38772531634192    7.74543144137388
C          -7.11779271489886   -7.17075490785940    7.19053583280330
C          -7.03309254987278   -8.66227930492764    7.52775103092951
C          -6.00119588163542   -5.86763042822780    9.03316631869684
C          -7.20212720837446   -6.10644586557965    9.91232039155422
C          -8.12552763796296   -4.88624893751080    9.92368748205744
C          -4.95504990633015   -5.03956607644189    9.51115040355906
C          -4.81012865815290   -4.30456206298410   10.75067287932744
C          -3.71253324809128   -3.48786189683526   10.72765279309759
S          -2.76865975966968   -3.58656743063944    9.30330981385795
C          -3.89371493705058   -4.73314661611464    8.64451817927183
C          -5.62497098653359   -4.34509386321476   11.94191110784342
C          -5.93069345588665   -3.23928988381399   12.66224399538404
C          -6.67536398488682   -3.26054629256154   13.86063837049430
C          -7.10825975659836   -2.13305892983550   14.50547812921566
C          -7.84408638942223   -2.05608316319079   15.71547625362570
C          -8.16516335370526   -0.78875680107129   16.09361319067732
C          -7.71236985491296    0.20712152561008   15.19660207423007
S          -6.83497528363877   -0.51260403017015   13.87455011751010
C          -7.92338890251436    1.57396170080048   15.25986325741781
C          -8.60222200928219    2.31087667613144   16.25204515886870
C          -8.66860603964200    3.64890312769778   15.99000942791553
C          -8.05274875266847    4.03174872593037   14.77730956602388
S          -7.36017373852798    2.63496450148159   13.98703958375036
C          -8.00107122388144    5.30441118503213   14.23861260822772
C          -7.40445589795855    5.57617380088049   13.01316843382342
C          -7.35883488905333    6.81569329245441   12.40455268226443
C          -6.76844142008179    7.12264221369119   11.12834041612786
C          -6.11627209959209    6.25673568358439   10.27940318836808
C          -5.56590000931853    6.63157239428858    9.03843519505438
N          -5.09302543250665    6.87159588462428    8.01898922386203
C          -5.89827660143115    4.88396118884508   10.50736079467529
N          -5.67289732806866    3.76064032342335   10.60399862707140
C          -6.98182842588030    8.54629498588776   10.87085176948762
C          -7.68100809501050    9.10504598570050   11.96780874755435
C          -7.94046648046283    8.04708309562762   12.96857139231172
O          -8.52023270905171    8.18964864628260   14.02844442363976
C          -8.03543937979796   10.42976624065914   12.02419330001994
C          -7.68404806742015   11.24632778963691   10.94313402135943
C          -6.98663372744694   10.67981774974819    9.85200348847015
C          -6.62682728994654    9.33808240207570    9.79607741061069
S          -6.65283025248896   11.86287007337532    8.62266892365078
C          -7.44538150813554   13.08539810208033    9.58045356006035
C          -7.93453054354219   12.63424068666375   10.75919437443524
Br         -7.55202001605822   14.84330449485530    8.93282777336951
H          -8.90252143714262  -11.76431336361049    0.77083385752860
H          -7.93074074787264  -10.92480270014706    4.85577187614757
H         -10.39996935559586  -13.57800255761267    1.48880947885872
H         -11.35691564822986  -14.81434865851917    3.30446640019943
H          -8.97115175086184  -12.28813109947657    6.66592557072790
H          -6.54933714491457   -8.66379976498540   -1.91238808476804
H          -4.88075527443370   -6.69066562092948    2.83603629686655
H          -5.76490679068099   -8.34094584416426    5.25861425078620
H          -2.93184032240282   -6.19555462135377    4.13883787877918
H          -7.14456120802897   -7.03632849623037    6.10874593916440
H          -8.05551591955722   -6.76900302469620    7.57421990096165
H          -6.07865662332730   -9.08175604252706    7.21654735301764
H          -7.83646187868983   -9.20332928837604    7.03109621602054
H          -7.12316121513115   -8.82483822199592    8.59924949536381
H          -6.87413894307118   -6.33050159667226   10.92461315577137
H          -7.76519146440945   -6.97254314583209    9.57465583202386
H          -7.60378317894474   -4.00781203130320   10.29400981882773
H          -8.98594131908282   -5.07100170679511   10.56279691399211
H          -8.48082982328449   -4.67175915551438    8.91814616441309
H          -3.37548266574591   -2.85785829151743   11.52776753891826
H          -5.97770576315149   -5.30421229154029   12.29151645492162
H          -5.63170495776343   -2.26681240546844   12.29219389650938
H          -6.93150690622971   -4.21919268362220   14.29252545577539
H          -8.11129461819844   -2.94181357226272   16.26450148117950
H          -8.72132072564312   -0.54291099834642   16.98020162309778
H          -9.02131841630144    1.84369208481094   17.12519506207837
H          -9.14771439575733    4.37216478708553   16.62553203576817
H          -8.45993724625661    6.11086599195547   14.79180942542157
H          -6.95234795826118    4.73770588604372   12.49733743243400
H          -8.56844987842713   10.82543429611181   12.87455522907014
H          -6.09607168915693    8.95609789432452    8.94035715855310
H          -8.45107201114849   13.25211722309657   11.47087172656975
