70
 SCF done       -136.287914609783          0.000343941346
C           0.93883115598707   -2.23587122813321   -4.00878271597043
S           0.95779699068904   -0.75808066527724   -4.95839952638751
C           2.67621821942037   -0.98642446614723   -5.38722587114824
O           3.31658903643874   -0.24583452820611   -6.07389486086426
N           3.12442023943416   -2.13954946999149   -4.80223928918369
C           2.23915939627951   -2.87243839837235   -4.03648127165517
O           2.55881311432618   -3.91050082501514   -3.48229429379777
C           4.49552508974026   -2.56227709697312   -4.98834136557692
C          -0.20494551163681   -2.64410878230529   -3.38097787194961
C          -0.45326455021713   -3.77145842496864   -2.58548750619976
S           0.74421669321027   -4.95507361968222   -2.15657469959880
C          -0.37608896695672   -5.88229823958568   -1.22530407002936
C          -1.66794021056074   -5.31815968241095   -1.26531356705689
C          -1.70722766337648   -4.10483541847518   -2.01626986110689
C          -2.93514479826401   -3.40292864690094   -2.11107336653645
C          -3.11632917789863   -2.18666207210224   -2.80771185654414
N          -3.37577026344941   -1.20349037561032   -3.34015188741491
C          -4.06915856803319   -3.90985044714135   -1.49349020145512
C          -4.03821010261938   -5.12053881324418   -0.81057414608022
C          -2.85786133222126   -5.83671337303069   -0.69958523125464
C          -2.93589424325673   -7.10887886742223   -0.08745580532643
N          -3.09885401876251   -8.15221716590453    0.35991293303948
C           0.03939026138236   -7.01615568075070   -0.49385808449513
C           1.26043304101536   -7.59708147824535   -0.64111755615737
C           1.72775370671246   -8.70110346471837    0.10751721229795
S           3.14827122657652   -9.55991375886926   -0.42691599583524
C           3.05746457702558  -10.70251401129730    0.88522984897148
C           1.97286493425958  -10.40343195867176    1.71004867771407
C           1.22975070956975   -9.27566898443780    1.27373328192480
C           0.15997669017761   -8.76463585963343    2.02990247804232
N          -0.67658627374298   -8.34740817596441    2.69453392622319
C           1.61334633579010  -11.10225940527110    2.87381609628356
N           1.28755956510253  -11.64761476324816    3.82958193451285
C           4.02436633164976  -11.73216737466072    0.95599155092005
C           4.06263398030400  -12.71737502337821    1.89345918052892
C           5.02385401414150  -13.74684585007198    1.93183181364443
C           6.05498906385534  -14.07874723135648    1.07506441737225
C           6.80437334658911  -15.19823229125151    1.48221280660018
O           7.78863954123147  -15.48987175670102    0.58632847293649
C           7.68446570075047  -14.52333739665842   -0.44764072342882
N           6.61963966013217  -13.59010790072712   -0.08792206173828
C           6.39637845481912  -15.78963604683744    2.64891170472086
S           5.01691769015116  -14.89858592493149    3.27046941366714
C           6.91814929336757  -16.93209660197836    3.30681996580382
S           8.28336787581026  -17.78579236822867    2.64997688882189
C           8.22909144123649  -18.92854348374783    3.96793315365944
C           7.20558564870237  -18.63788489224557    4.84463341404270
C           6.46828046348946  -17.51464077356447    4.47261344977568
C           9.13843537230667  -19.97446242583637    4.04927398818471
C           9.93815533787634  -20.88325662242382    4.10758133469081
C          10.84658165211086  -21.94621330818194    4.20726662525883
C          11.82577955985306  -22.15925061016844    3.33000699615601
H           4.69701866408418   -2.71271039172614   -6.04889797591784
H           4.62415000986293   -3.49504416968478   -4.44196993952122
H           5.17454521593427   -1.80128449947599   -4.60374006634338
H          -1.05569084624748   -1.99127151591766   -3.52581652040266
H          -4.99552739899848   -3.36003450438460   -1.56664361048781
H          -4.94224547163639   -5.51519065859280   -0.37262017985471
H          -0.66129182691185   -7.42910260713251    0.21585289204043
H           1.93041665401503   -7.22507103416721   -1.40646794309269
H           4.78787115634142  -11.69954854493591    0.19113691373802
H           3.32327451661258  -12.73833704744888    2.68042812637497
H           7.48909243836330  -15.03739675412078   -1.40177243720752
H           8.64230518761343  -13.98719794462477   -0.52231286903592
H           6.02205073250981  -13.26579428143032   -0.83241841810518
H           7.00981433288296  -19.22860410319323    5.72140172009717
H           5.63025099238897  -17.12526943052686    5.02307020349909
H          10.70519831173704  -22.60096420832184    5.05900054657653
H          11.97231317756621  -21.51165741076776    2.48189864446895
H          12.50605442332696  -22.98606486260157    3.43735303420540
