82
 SCF done       -162.044800757721          0.001721828874
C           4.78634573727510   -3.93333112789212   10.63910906891581
S           5.78193987954071   -4.40117147974623   12.00872764529294
C           4.35008223324258   -4.54888117719402   13.07400276611156
O           4.39421563705267   -4.83112954743855   14.23327532970202
N           3.22096402537817   -4.30111907473112   12.34070197665234
C           3.35103656425072   -3.99803329958219   10.99790640928338
O           2.41158691936925   -3.86637317213070   10.25593959095181
C           1.91925181685186   -4.39902070109310   12.96615362141206
C           5.27518263679931   -3.61378911751654    9.43584872827401
C           4.45112979619497   -3.11855568173124    8.32596210687141
N           3.69549318040596   -2.04927325438960    8.55711585015605
C           2.96546015664808   -1.61224694333976    7.54568583865833
C           2.97587367731246   -2.22019278807659    6.30151529616357
C           3.82947097577768   -3.31863528206812    6.14748829158999
N           4.57285630955095   -3.75101120204276    7.17194348187773
C           3.94748696810938   -4.02014313961525    4.88935428621106
C           4.74856455062980   -5.08797959272165    4.73663231422181
N           4.86651118506196   -5.75233751331658    3.54872267771166
C           5.63235163556292   -6.83241892460600    3.28684545663868
S           6.57793333655093   -7.60019580754276    4.51367359387617
C           7.11548667930784   -8.77362561143715    3.34321471173902
N           8.00183952616355   -9.76017491421444    3.78474034240756
O           8.37745223216494  -10.58894534618242    2.97608265733056
O           8.33179381984343   -9.71070953539489    4.95822882330384
C           6.59731054077008   -8.58038519830659    2.09341627493928
C           5.73959294456866   -7.46368089924367    2.02665223208582
C           5.05164330680745   -6.97698214728581    0.87968388704148
C           5.01211991474941   -7.52120512352045   -0.36676515769564
C           4.28214058162652   -6.99133685232732   -1.45341488100524
C           3.44431379376707   -5.90167773066002   -1.49612507360335
C           2.74098967024853   -5.45338354869745   -2.64510798339833
C           1.95565903353864   -4.35617178582039   -2.45100175806186
C           1.98717643668086   -3.86021469206454   -1.13028380071182
S           3.04566636272059   -4.84058348808169   -0.15127802493213
C           1.33628863526724   -2.77611739333079   -0.57090725140767
C           0.44878945931182   -1.86107587183215   -1.17324934622078
C          -0.01599753654629   -0.89849734275946   -0.32395041685843
C           0.48355385818458   -1.00186669880616    0.99560119764274
S           1.56282471315999   -2.37013321205819    1.11789858512525
C           0.24277500683829   -0.21614132623332    2.10690180224680
C          -0.61412210037125    0.88009205103867    2.11022004485346
C          -0.85785461870695    1.67716075908171    3.21127600298898
C          -1.75122947293448    2.80714073163461    3.26402852323402
C          -2.54504063114049    3.28878130545472    2.24819121264381
C          -3.39904821193806    4.40280405029329    2.37074037054195
N          -4.11290381018663    5.30200267179906    2.40614330217594
C          -2.62892424189371    2.75279055760770    0.94867548013596
N          -2.75790833607572    2.37799701262678   -0.13044271224266
C          -1.68010965374484    3.36706706073228    4.61179604995149
C          -0.76612005770688    2.59934877661226    5.37397042964299
C          -0.22538406666056    1.51037088854709    4.53421446561780
O           0.57534588865748    0.66368282710703    4.88630978896846
C          -0.47627564222147    2.88122150820515    6.68581339624011
C          -1.12117749543513    3.97331055123327    7.27768266403994
C          -2.03687260231857    4.72999608972342    6.51078348350172
C          -2.32885563207339    4.44542142216224    5.18182005644221
S          -2.72473838120776    6.03069441476096    7.43621587717857
C          -1.78303430033497    5.54745272078835    8.82114181995739
C          -0.99443973531422    4.46809343875010    8.60473328182488
Br         -1.93146661155063    6.51302667848395   10.42273770797575
H           1.79985282084625   -5.38124557388250   13.42279455365561
H           1.17421859899871   -4.24961535256049   12.18673235707632
H           1.81761431855824   -3.63502128189754   13.73686369361929
H           6.33327750739086   -3.71150933726835    9.23743475535656
H           2.35592375421604   -0.74084039505171    7.74331714408063
H           2.36510811993354   -1.85350022779743    5.49335590386028
H           3.35409956405021   -3.64732009135419    4.06534478051633
H           5.33489187178073   -5.45723672659751    5.56520113317267
H           4.31035177975719   -5.38789746332557    2.78203260069126
H           6.84039420477154   -9.22053606297125    1.26570320904539
H           4.50713815371022   -6.06021562838502    1.03348767449881
H           5.56640536403830   -8.42664382696862   -0.56716512492277
H           4.37911971751553   -7.52197021736525   -2.39240950433483
H           2.83908902085882   -5.96314710804307   -3.58758811988085
H           1.35924948445522   -3.89476521104465   -3.21734661368464
H           0.17610720270714   -1.93337841961097   -2.21101986503642
H          -0.69988883914000   -0.12238620165443   -0.61763764704408
H           0.74769471563389   -0.47172130248555    3.02689389334691
H          -1.12311499089760    1.12142358674379    1.18869803846495
H           0.22632492857221    2.27958833506108    7.24061290781883
H          -3.03296643561372    5.05464773153693    4.64110868594282
H          -0.34876735006590    4.03799280332964    9.34840314758451
