77
 SCF done       -183.284061944827          0.000654496044
C           7.29283327927292    2.74224693606518    3.73586574821314
C           7.10163365323258    1.54176322129477    3.11682463130374
C           6.15209178756783    1.63100657929209    2.04473795710008
C           5.63624393221539    2.87423909157611    1.88176269153194
S           6.31636223315481    3.96765000927599    3.02900367091294
C           5.99272975009489    0.32343482594061    1.39607413908985
O           5.26357627996173    0.06050900368893    0.46765678074106
C           6.96044978947074   -0.55942888351605    2.10382074123342
C           7.50645878676724    0.15566566227434    3.24732281775351
C           8.14257012239991   -0.43456847769394    4.30830394634767
N           8.81523655048392    0.27840991736129    5.34798764665961
O           8.89845766186655   -0.26288828795912    6.42808033177204
O           9.25034957696414    1.38192003290966    5.08382175320469
N           8.11336612621278   -1.87207110167864    4.52806617666353
O           9.16071784199667   -2.41022644957806    4.79243667783141
O           7.03871928273982   -2.41961741967234    4.42597584497528
C           7.46491425463889   -1.76472553560382    1.67871322050249
C           7.04843459310456   -2.63381020081679    0.66063071787217
S           8.07895643301834   -4.04475277528972    0.37594399618227
C           7.02741922426732   -4.60257048216865   -0.83372735137145
C           5.92430883711002   -3.74567021013875   -1.01247256658796
C           5.92710138780993   -2.64967814285155   -0.17491547392688
C           5.09444719492658   -4.32398067378354   -2.08709493427968
O           4.06348629548906   -3.92581860617462   -2.56173973437099
C           5.83687575574641   -5.58399516775138   -2.49658214522304
C           6.96710200660948   -5.70730641684071   -1.72306558665277
C           5.33377434866677   -6.38589419516490   -3.54062779405372
C           5.88385746125086   -7.54727799264817   -3.98962108742994
C           5.37085098204640   -8.29419205858644   -5.06867842967132
S           3.98246918193580   -7.81241324994072   -6.01973435581775
C           4.07109175991473   -9.18176927463231   -7.08926750929094
C           5.14207533687718   -9.99733354855481   -6.71772091621870
C           5.84873752968369   -9.48448130195166   -5.59523461560535
O           6.87764044036410  -10.28375334522221   -5.26516516234916
C           6.84161611278394  -11.30230409669555   -6.16397715082529
N           7.82805657754465  -12.31968688151285   -6.05089387339221
O           7.75619383122833  -13.22661472897844   -6.85445671165879
O           8.65129423537829  -12.20868657773313   -5.17202731610343
C           5.82083889993022  -11.19296414941503   -7.07009925636602
C           3.17417463774244   -9.32603703182470   -8.17347744533854
S           1.98444782981615   -8.11199481049017   -8.51073834008033
C           1.46068443195827   -8.94557601781729   -9.93971032378571
C           0.36822519660680   -8.42954063125411  -10.77678125460069
O           0.02133256488277   -8.96907376082320  -11.79878905695741
O          -0.23535733628629   -7.31139847011902  -10.36079270196956
C           2.17600451062193  -10.12541908978051  -10.11945725226847
C           3.11721317643213  -10.34596345187455   -9.10127539707343
C           2.03229179332024  -11.04794185050199  -11.23279962225095
C           2.07745738490892  -10.74688015546942  -12.53881888667623
C           2.26719456496111   -9.44711172306809  -13.19434607758238
C           3.13568442036755   -8.48678432224379  -12.76662294937622
N           3.31359751364800   -7.19390254201692  -13.36481999305115
O           2.39849382345967   -6.73799848967702  -14.01378254637589
O           4.38194642705640   -6.65460889707235  -13.18591337727374
N           4.03239377427686   -8.71890338560605  -11.65016210574718
O           4.08936733480888   -7.85766627985320  -10.80202401448626
O           4.64538462388695   -9.75997456427660  -11.63282725552367
C           1.50819601169525   -9.52010174415487  -14.41978360250061
C           1.06751649396067   -8.68737850189431  -15.41067223759843
S           0.23193479286389   -9.55885671683925  -16.62575876927289
C           0.45765987167604  -11.06657330343763  -15.82207477740187
C           1.14064622342341  -10.89159066167690  -14.66319232670752
C           1.57299050374164  -11.73893683143462  -13.54849013533913
O           1.49296190252829  -12.93007735723606  -13.40880686788448
H           7.96496310733911    2.99542744197952    4.53126906367381
H           4.90695289696306    3.21269447159833    1.17338412515401
H           8.36499820257643   -2.10879933772288    2.17815192848298
H           5.17857151662299   -1.87825822204173   -0.15467298366823
H           7.69834388001478   -6.49307008101860   -1.77125925740653
H           4.43129846882471   -6.01308436928673   -4.01191381686798
H           6.77120674341280   -7.95490997128136   -3.52514873912834
H           5.62351698756797  -11.88360586278296   -7.86305977488998
H           0.12824947397481   -6.94084160197395   -9.54496190020085
H           3.77089678888736  -11.19671838995951   -9.09029432591410
H           1.86840854602795  -12.08861938065071  -10.97643592962229
H           1.15111507069240   -7.62114735020508  -15.47887990869058
H           0.07516650991301  -11.97343180354316  -16.24618868248150
