81
 SCF done       -181.630030080783          0.000547633068
C           4.81120204178303   -8.07408106429315   10.01172379712492
C           4.63319578754887   -7.83040060009920    8.68285489370479
C           5.80447847416602   -8.14353366480628    7.91298774129772
C           6.83752089233000   -8.60112770463136    8.66243901601052
S           6.39399013411954   -8.67100142221092   10.32782953750838
C           5.54793926912256   -7.88102057851257    6.49361989681509
O           6.31365850622878   -8.03959975164783    5.56264457399556
C           4.14123836123024   -7.44624869326430    6.43896631153372
C           3.63099995772642   -7.28218516779065    7.78496870068697
C           2.49060749398208   -6.59393136283735    8.11130404196832
N           1.90613673708663   -6.55288146066997    9.41071858451129
O           2.13963591769879   -7.47745899547541   10.16555899511967
O           1.21868495641390   -5.59185204299613    9.68092755726690
N           1.80773190867667   -5.74843046167159    7.14507739556521
O           0.61190148431692   -5.87622892161609    7.04705738458706
O           2.49526164438035   -4.98242524618991    6.50773666299829
C           3.37121747649897   -7.42180447787328    5.29587399865408
C           3.75463149664212   -7.50107500271801    3.95691409232901
S           5.40754005275439   -7.45370426130278    3.34723132726440
C           4.83121721717541   -7.48118489736805    1.74821907869043
C           3.42412165524848   -7.55913886980450    1.67097754497398
C           2.82068837633597   -7.55849465691415    2.90372565504143
C           3.05915459208324   -7.61028290167886    0.24271788953924
O           1.97199859522217   -7.69262433322416   -0.26884561388998
C           4.38825437352920   -7.54329989285306   -0.48256002554106
C           5.39932101130585   -7.47667213460875    0.44636522739341
C           4.41857877241701   -7.55965274597240   -1.89540955221970
C           5.53675440482980   -7.43530020794108   -2.65728125086143
C           5.55527000298669   -7.45665919480323   -4.07618611676721
C           4.52963168047221   -7.67788516067042   -4.96218074127954
C           4.92791502983466   -7.62846533653020   -6.31533623421642
C           6.31725473638548   -7.34925887227153   -6.45557754551760
S           7.08058214647969   -7.17262037913579   -4.90381031127418
C           6.92927840063109   -7.24197515279997   -7.68344561913922
C           6.14407927391120   -7.42403627403739   -8.82233701114049
C           4.75862790450529   -7.71572972875617   -8.68344408183470
C           4.14431590368638   -7.81654781448739   -7.45694538950579
S           3.99328218929378   -7.91237725727557  -10.23599242351876
C           5.51205284658048   -7.59827519875556  -11.05242773426039
C           6.53626035308030   -7.36148208756827  -10.18033572550145
C           5.56540927423115   -7.60234689882290  -12.47708665700926
S           7.03063919654526   -7.21663693526230  -13.31426104188111
C           6.25906369146148   -7.39629949078584  -14.86043829978540
C           7.01630624158652   -7.24753933189110  -16.10925017428819
O           6.53434312124804   -7.45859509788017  -17.19571095895527
O           8.29172002001546   -6.85702105052724  -15.99879713673109
C           4.92522140726400   -7.75892935018745  -14.71188657317838
C           4.55402386471365   -7.89033439401010  -13.35923378059430
C           3.97076969797431   -7.99884467871788  -15.77429034290589
C           3.72969151864926   -7.26201766489160  -16.87112228761106
C           4.31620700641717   -5.99545657191150  -17.32132866590156
C           4.63911766761492   -4.95834380987380  -16.49754820848511
N           5.22137699418022   -3.71197237504763  -16.90147532415119
O           5.04200812136152   -2.76678369499532  -16.16594920295920
O           5.83226526511257   -3.67759525048472  -17.94664687547590
N           4.36925850566819   -5.01299387714399  -15.07097274341330
O           5.28392329192164   -4.72828213864731  -14.33305888694882
O           3.26577972864721   -5.35802608581932  -14.72380986460896
C           4.26869427778126   -6.03769614317474  -18.76507638161341
C           4.76692243939669   -5.34652098372454  -19.83366704799868
S           4.19759715166611   -5.99806607157018  -21.31321344219919
C           3.27652584179414   -7.21999543822911  -20.52018663456642
C           3.41692783622044   -7.12425714631455  -19.17448103842570
C           2.95771485590845   -7.87565998381186  -18.00343077181266
O           2.20216186247180   -8.80947407591177  -17.93623392294113
H           4.11217814572261   -7.97779358186653   10.81821456607483
H           7.81926190680915   -8.89467695010556    8.34903826649000
H           2.29498511031628   -7.37840650056775    5.42520835036316
H           1.75952810508798   -7.59041815933869    3.07515572471709
H           6.45344355102522   -7.42645111006819    0.24458112674048
H           3.45059139489322   -7.66777883638832   -2.36627702162307
H           6.49479171903133   -7.29806290602376   -2.17462049994957
H           3.51776333782501   -7.87699258111401   -4.65987861616991
H           7.98158529386977   -7.02395957905648   -7.77092344274947
H           3.09153582083143   -8.03225325304571   -7.37030699670260
H           7.54137106506270   -7.14665342402411  -10.49888204687309
H           8.56833460063766   -6.66926201724472  -15.09144222740211
H           3.55727402694847   -8.14261228329062  -13.04471128891909
H           3.37916836545758   -8.90285151821853  -15.67135671539186
H           5.45417968459065   -4.52460145397136  -19.84242367391420
H           2.70089693323868   -7.92359332620507  -21.08768376911698
