89
 SCF done       -193.816603467579          0.000977223237
C          -5.32102840793021   -3.43060170628311   -0.00452052077954
C          -4.05526751278007   -3.03473667686700    0.32706856054257
C          -3.06335013262674   -3.62477320360197   -0.53349770533937
C          -3.58606081409861   -4.45384686968751   -1.47018797547554
S          -5.30237527921196   -4.50664837233332   -1.33947071142166
C          -1.73228143951196   -3.14851255486021   -0.15703337146582
O          -0.65005262300137   -3.57641023249971   -0.46772225438855
C          -2.01925222736815   -2.04158627645758    0.82265298124339
C          -3.39039389653732   -2.21388125308405    1.31799361462068
C          -3.85575878606617   -1.75463981846855    2.51184144977820
N          -5.21617343356693   -1.83017410845464    2.96257844617706
O          -6.08820786882380   -1.86883318757276    2.12174989031605
O          -5.39169785956535   -1.85777770690759    4.15857528955223
N          -2.95534265190444   -1.19616429439788    3.51741455477934
O          -1.96750230788778   -1.83856619984397    3.78040530952191
O          -3.26522323040187   -0.13338136199858    3.99298887341031
C          -1.19873484143175   -0.99334761329133    1.05188738752338
C          -0.02388870159190   -0.72304310276118    0.27736896262322
C           0.11912100098386   -0.84827893253506   -1.09754325259668
C          -0.97259614061336   -1.19116579486258   -1.91440447889743
N          -1.91332025082296   -1.42477457424328   -2.52696507403980
C           1.40452745791561   -0.45347484401621   -1.54385162667104
C           2.19358201994003   -0.01531845384177   -0.48053258013252
S           1.39662177196264   -0.06187530752598    1.04062753108676
S           3.79067682994987    0.49432567837446   -0.91499656765028
C           3.40359756108902    0.11231668645125   -2.56260027223475
C           2.12343212298854   -0.38229971524807   -2.77134870717279
C           1.90034885064135   -0.67953967430062   -4.14462712284722
C           0.70255093375685   -1.19066882775001   -4.67455331235371
N          -0.26269277034360   -1.61408599319482   -5.12471021021686
C           2.99224056758502   -0.37673126748579   -4.93645494804418
S           4.33559610260993    0.24192970248229   -3.99921764820311
C           3.09881605937331   -0.55597817788052   -6.35627694471498
S           2.45764542446837   -1.97836132204463   -7.10743048101713
C           2.93464367361914   -1.41689844986871   -8.68572790631098
C           3.58746421229329   -0.19868290804975   -8.60921636634312
C           3.67718659686781    0.28438147932499   -7.28754005913113
C           4.27922899303532    1.62154377474610   -6.93387963320180
C           3.37361910465602    2.34034844557329   -6.06268696341267
N           2.63982511120708    2.91064849094108   -5.39761420996641
C           4.55345308419761    2.45493721190387   -8.19441687475593
C           5.21962822456916    1.57618185116262   -9.24226296254309
C           4.21519105720310    0.54083079746000   -9.76987441108901
O           4.76239011143094   -0.30225048083143  -10.75933210634964
C           5.81423937471900   -1.15283724049824  -10.36150854501313
C           2.60532026838169   -2.25956713468121   -9.79422808206799
C           2.41813545078575   -1.85855339261806  -11.06633863703303
C           2.12973318958675   -2.73989882245466  -12.16462603375715
C           2.33927869626494   -4.13585043912949  -12.14233784722247
N           2.24657079930012   -4.85960207523710  -13.22500449228369
C           1.86364483715877   -4.27953589687993  -14.37303581040570
C           1.52987719168391   -2.91283056353921  -14.35940848094034
N           1.70180560135443   -2.16662423771821  -13.29655689684494
C           1.75677449083172   -5.06416613832526  -15.56577381335256
C           2.00084823960416   -6.38437169946095  -15.74621678772487
C           2.54614309996000   -7.41256602697881  -14.86531403868177
C           3.50693687459899   -7.25008546469945  -13.91295483322630
N           3.94564374987871   -8.33156531439800  -13.06642363084003
O           5.13168307442305   -8.43295415676227  -12.86292096742920
O           3.09272169744432   -9.07700489882097  -12.63235724208245
N           4.27935006787487   -6.03926157157215  -13.73475331290985
O           4.45966602381400   -5.34402575435729  -14.71022235362440
O           4.74436490828090   -5.83923254717324  -12.63594138444118
C           2.03176012317425   -8.67845096218700  -15.36397718978342
C           2.00138090570218   -9.99181203836062  -14.99621357382763
S           1.28715578153848  -10.96537010050912  -16.21966842401617
C           1.00912436501328   -9.61020190423218  -17.24643303999938
C           1.44501300605311   -8.46746680540445  -16.65917611354099
C           1.45462065531444   -7.03768882530789  -16.98197331173837
O           1.05854218164280   -6.47810817340271  -17.97339945236744
H          -6.25504208947734   -3.13390256558203    0.42940645333650
H          -3.07677586795932   -5.01003594383611   -2.23112753017101
H          -1.42053019632794   -0.26041206654542    1.81744654375519
H           5.22135592569548    1.46378527036810   -6.39041299468745
H           5.19348242183424    3.29996970008196   -7.93654637769567
H           3.61270192256269    2.84961380819894   -8.58559353936801
H           6.07838396789492    1.06715426675478   -8.79994076705598
H           5.57199668959657    2.17665177822434  -10.08138879655212
H           3.42033654954984    1.08067391014534  -10.30607791882695
H           5.91892933442052   -1.88569384739090  -11.15925162922976
H           5.58656781583131   -1.67417549230971   -9.42683786731845
H           6.75784471565830   -0.60822884841226  -10.25301543956204
H           2.44551403668549   -3.29702218936726   -9.52913963362598
H           2.47196167938730   -0.81684817119769  -11.33863888821388
H           2.67149831893585   -4.66046479532398  -11.25792768114227
H           1.13440994344548   -2.42175685555898  -15.23824797189618
H           1.34178145837655   -4.55036537922837  -16.42601560311589
H           2.31383093556364  -10.44829414650300  -14.07788063826443
H           0.54858208909543   -9.74017109419935  -18.20514100241359
