80
 SCF done       -171.213564930247          0.000747548039
C           8.39337831545426    1.50312920082760   -6.09447532126255
C           7.90570741247020    1.05958308377879   -4.90111128521462
C           6.72800266695084    1.77261203477539   -4.49450577914347
C           6.34107134898924    2.72123891054654   -5.37868765075859
S           7.42743637179997    2.78086860055096   -6.72299821614320
C           6.23632478313715    1.22880641257593   -3.21499655979965
O           5.19680373549855    1.48975119714889   -2.66138947364726
C           7.27735707700082    0.23023029321277   -2.82407460218065
C           8.16333140192456    0.01341121626842   -3.93239641611570
C           9.04064555352217   -1.05835551543467   -4.08307237945579
N          10.15932556122676   -1.02208427740747   -4.95816322883776
O          10.60848890534177    0.07618449526480   -5.24221815830438
O          10.59647129931074   -2.07248220297996   -5.38017589895105
N           8.80689554821379   -2.29510167204057   -3.43435981380191
O           7.63956009424874   -2.62076241878842   -3.25904285994065
O           9.75165332660757   -2.97367378119526   -3.07497949203835
C           7.46510681189742   -0.33157356464396   -1.57564059559113
C           6.84341478895986    0.00355407637114   -0.36238059099323
C           7.06797105258540   -0.76563450215199    0.78992108220850
O           6.73710022996559   -0.32001576301539    2.03726971907883
C           6.02674964026316    0.84575648452963    2.08605043904627
C           5.69868969142774    1.56711206360987    0.90204417216187
C           4.95599698588649    2.67445348644322    1.15098374138222
S           4.65291946244306    2.85246366556527    2.83804634695335
C           5.53181194342405    1.42047823493829    3.21171585951925
O           6.14094702192654    1.17560339045769   -0.32046051202801
C           7.67947002714952   -2.03739598025864    0.79606320037216
C           7.65432687018967   -2.94767016484836   -0.22757373568863
C           8.42419951151610   -4.11738789719697   -0.25591863339371
S           9.74355000728734   -4.39929682653735    0.84897364513449
C          10.19019225157733   -5.87910996601716    0.04935391771298
C           9.33238860980376   -6.12984426640685   -1.02991409584954
C           8.33900742106959   -5.16208518858573   -1.18520586848408
S           6.97414192383883   -5.22377062302328   -2.27620986419239
C           7.24143709759494   -6.52785761738792   -3.43003718855102
O           6.35131398348715   -6.77623030791017   -4.19832244382878
C           8.51773138478907   -7.33308552136597   -3.49328359157432
O           8.77003805533897   -8.00092501774651   -4.45401715484008
S           9.60910225283447   -7.49205130214997   -2.09881962065648
C          11.27159345867013   -6.62993238275638    0.53999938341175
S          11.75917815857397   -8.17049958933289   -0.15697999419697
C          13.00248574836677   -8.32865633525094    1.01160053232343
C          13.03901898847679   -7.23085678265358    1.89482236830715
C          12.07324002053085   -6.28300536493035    1.63269608285964
C          14.13348598390239   -7.47682440951375    2.85050639275245
O          14.50963822318454   -6.79333761042529    3.77095166462234
C          14.70479907578856   -8.81350630091715    2.43081331195609
C          13.99358193422577   -9.27268588653281    1.32790991654369
C          15.76592788217727   -9.38348323349749    3.13254368596668
C          16.34116220263624  -10.60850393668526    2.86446537256167
C          17.39169899247971  -11.13612583442953    3.60282314259012
C          17.97267719726625  -12.37006138139636    3.37024498799311
C          19.03719506197261  -12.95174054354459    4.09189237902716
C          19.40508548430191  -14.18877920444746    3.64984288470960
C          18.64597512017384  -14.64956263751825    2.55184416921234
S          17.45079351625444  -13.45313700105704    2.09805767622833
C          18.76428287228179  -15.85287906171393    1.88479478924959
C          19.68545293503850  -16.90054721642663    2.16194745497975
C          19.56933935520171  -17.97244287860991    1.34551995050603
C          18.54005759371908  -17.85054380924291    0.35430633398274
S          17.73920847085556  -16.28115989326259    0.53805925013290
C          18.19191662451267  -18.74223283793155   -0.58412262955227
H           9.27153892541822    1.19847765385133   -6.62732555308538
H           5.49985083754110    3.38345374035925   -5.33609288220708
H           8.27005034395133   -1.04204466162550   -1.46253261620646
H           4.57686119959019    3.38016062118224    0.44242977880963
H           5.63285414726484    1.08547210791085    4.22273902166518
H           8.13572096590816   -2.32446734361284    1.73511746257266
H           7.00202055938925   -2.79402953697659   -1.07894287994884
H          11.92798261997755   -5.37316994824032    2.18729756858626
H          14.16267599612512  -10.19149537199306    0.79825990405040
H          16.14711026110995   -8.79872280996324    3.96099856984867
H          15.95836300497387  -11.20059534752288    2.04331554795292
H          17.79134140211181  -10.55425075199027    4.42334103413885
H          19.49994217781120  -12.44010093195121    4.91724927246859
H          20.19531501612316  -14.77415175908680    4.08380814439812
H          20.40222294780189  -16.82118599029881    2.95956632543397
H          20.17579755661615  -18.85863867626104    1.40183738087169
H          18.70374128088102  -19.68523514323078   -0.66182169458353
H          17.39899542984938  -18.54807418822630   -1.28295458331014
