85
 SCF done       -191.552017978232          0.000623044492
C           2.59986894618727   -4.26882469723237    3.10240760076163
C           3.34367151758738   -4.09520916071705    1.97518759431412
C           2.53663641223191   -4.10777153210254    0.78827613616026
C           1.21742858887109   -4.27590572743663    1.03023894439109
S           0.92569451236473   -4.43413335399963    2.72819968733180
C           3.40190960610491   -3.92689722043859   -0.39065835035343
O           3.05800535450135   -3.73299317739897   -1.53360412317883
C           4.77913797350473   -3.89278661430366    0.16915457122636
C           4.73746549316543   -3.96841893308948    1.58141669927534
C           5.85561424679223   -4.02069960504226    2.42969314359717
N           5.81297685811468   -3.73716271548032    3.79500931909569
O           6.78581281208569   -4.03558159106389    4.48665622006631
O           4.81343856391237   -3.21785870877902    4.27480783109775
N           7.14864499811028   -4.31195492271143    1.93536871577081
O           8.09234848258597   -3.65714050151810    2.34907196352340
O           7.27741937174414   -5.22237774786158    1.12514999668786
C           5.93228092556160   -3.71472957555101   -0.61290307781466
C           6.10807664182702   -4.25227049402606   -1.87646530033402
C           7.33219954950977   -4.12557130036957   -2.58252518418626
O           7.64771938005348   -4.94830715722256   -3.62268125107696
C           6.65660840888922   -5.76909843340915   -4.07486469557213
C           5.38746869347905   -5.82008368507254   -3.43167100695974
C           4.52558890836972   -6.67039263881670   -4.04427624671027
S           5.25927620464380   -7.42179904612074   -5.41079446661765
C           6.73924994164554   -6.58323029128946   -5.15900707592950
O           5.12762781653482   -5.10644576867379   -2.31040283045143
C           8.39135381564456   -3.28846216411160   -2.21353135543314
C           8.31048877320064   -2.09641668519965   -1.52855263801948
C           9.39430785726552   -1.42606740094365   -0.92248403688078
C          10.42616397706449   -2.06117358095988   -0.22712189861611
O          11.40590261840781   -1.37583286642791    0.40195650592671
C          11.24379610020923   -0.02568800950590    0.48064436302144
C          10.14967455019749    0.62849364593358   -0.15730637385294
C          10.14174988565750    1.96628867975262    0.06051545781690
S          11.47222393239827    2.44224706403022    1.04954960381543
C          12.04460143062843    0.82475212877291    1.17085325976817
O           9.25247016579037   -0.06005880856517   -0.91301092998662
C          10.38600035167895   -3.45438673371907    0.08059723138448
C          10.85334552856018   -3.94447047994219    1.25632408704261
C          10.46908392416562   -5.26183086530735    1.66700291141361
C          10.08216310483741   -5.55071445224266    2.95569360408475
O           9.40659833780301   -6.70119117739098    3.27276045769758
C           9.03836064624428   -7.48795038402254    2.22100599944546
C           9.46251834909027   -7.19876807258757    0.89335453251898
C           8.99436488954654   -8.08762717463112   -0.01558520229534
S           8.02491960280046   -9.29338362446137    0.74164553254804
C           8.25409168865811   -8.59088288763442    2.29687980316985
O          10.25249423109565   -6.12246769320414    0.61977730337849
C          10.10362416705363   -4.63528598716034    4.06565123364425
C          11.11609010088799   -3.83488892094100    4.46585638261367
C          11.02034005753679   -3.01045743351162    5.62549436440486
C           9.93184704722406   -2.31967321167217    6.05195590275465
C           8.69062954421405   -1.93451701612077    5.40859542700129
C           8.46920927950082   -1.50416942450939    4.12415024434157
N           7.17688679556879   -0.93382928697704    3.76246614745653
O           6.77789672408951   -0.02265781168969    4.45088264234646
O           6.60290377309297   -1.39192567936780    2.80599183583174
N           9.41936330011388   -1.40843485587253    3.09621975271396
O          10.58297760661574   -1.68457610526591    3.33978733140938
O           9.05755026884108   -0.97147052705562    2.01310582644065
C           7.71199784020011   -1.81943882175019    6.47896372045848
C           6.35934758839929   -1.74293908713173    6.62281999513833
S           5.92324301572434   -1.62651650797167    8.28043235983810
C           7.56506430660270   -1.67820888970201    8.80365847767984
C           8.39936282460753   -1.79516111947143    7.73951311136530
C           9.83521549133505   -1.97719848924854    7.51477532963872
O          10.74848908734888   -1.93412894512523    8.29985612361265
H           2.90282432364945   -4.27389485934738    4.12920461615700
H           0.40214789137728   -4.32897976647766    0.33727139834029
H           6.77240550421235   -3.18683309796590   -0.18616480952950
H           3.51546466891338   -6.89053630356478   -3.77108823059548
H           7.57364514859707   -6.73020957071575   -5.81231655823433
H           9.35643967940184   -3.61129053452633   -2.58293786189982
H           7.37871484257583   -1.54546753677130   -1.52838198779825
H           9.43788082285650    2.68976447771519   -0.29341094889781
H          12.91521385779341    0.58862991850930    1.74592096114299
H           9.79026703771580   -4.09809956878479   -0.54201816393664
H          11.34752675060002   -3.29664518572785    1.95916966101578
H           9.15971489542115   -8.10318519996290   -1.07226385881985
H           7.80363090070195   -9.02262538283190    3.16583350731841
H           9.20827751996962   -4.68825334054974    4.67532041012898
H          12.09010348633293   -3.90349095910454    4.00225297256676
H          11.88262654863992   -2.97983040608246    6.28373572449316
H           5.57527239851039   -1.79560481662775    5.89175284215156
H           7.80563093416885   -1.62565360462283    9.84643108553445
