87
 SCF done       -175.052134526570          0.000535209050
C           4.54632520304269    5.57068719988205   -7.91176571871852
C           4.78056056994344    4.33463540068081   -7.39038619623657
C           4.52465045421332    3.28792079041563   -8.33684015996389
C           4.09929540176253    3.73940632948401   -9.54072766722966
S           4.01177555367342    5.46445426780724   -9.54573878742750
C           4.80323120786816    1.97921546342224   -7.72505131312646
O           4.72081079118499    0.89752599993709   -8.26497483123042
C           5.26646570277959    2.30320828281226   -6.35443768421940
C           5.14336971852345    3.71981745849921   -6.12567328970576
C           5.21146906237971    4.33470992269805   -4.89131677648166
N           5.32251868232613    5.74003018956761   -4.71454933070824
O           5.82006273281892    6.38625788373286   -5.62103528117961
O           4.90676402391004    6.21714445145612   -3.67823941842196
N           5.08392986676976    3.59534734057862   -3.65782748742902
O           5.82443379365562    3.89131241958103   -2.74766486530425
O           4.23731696377296    2.72505808462382   -3.61822652540958
C           5.91922088071035    1.45793784570366   -5.47147847429261
C           6.00278744348752    0.07163866214394   -5.43221607465648
S           7.05069821984413   -0.62012184065978   -4.17276731745061
C           6.60186515534648   -2.19723770191623   -4.62538374695651
C           5.68468168867686   -2.19663800067833   -5.70538013055772
C           5.34899466220539   -0.94167150830881   -6.15212571393038
C           5.35641345058284   -3.60165835893450   -6.00391298591392
O           4.61340625635808   -4.03265828633502   -6.85244686846987
C           6.16168032830313   -4.39558974277756   -4.99536178880469
C           6.88177241826161   -3.50615528499964   -4.20666378219305
C           6.16345433845702   -5.78808842066537   -4.86303367843370
C           5.45707828238806   -6.64781096172911   -5.67038258010510
C           5.42600799972826   -8.03736812536412   -5.51771651917999
S           4.50702004282442   -9.01370269144908   -6.66954650552963
C           4.92498364627164  -10.44672638674571   -5.83489646073447
C           5.73780759521093  -10.17835197781981   -4.71173587220853
C           6.02080494509045   -8.84260325679368   -4.53633008829979
C           6.02614488837344  -11.46412587329362   -4.05497376592891
O           6.68626523497886  -11.65544721342507   -3.05860946770628
C           5.31029550147562  -12.48711951755116   -4.90649765310894
C           4.67657411542526  -11.82246288149484   -5.95193331092957
C           5.28788009945666  -13.86485694151598   -4.66898451075348
C           5.90124647073675  -14.46192975525425   -3.59225888112747
C           5.87260263378783  -15.84293429233774   -3.34345254197394
C           6.46192634828444  -16.44041805293561   -2.22415034210553
O           6.40438781471922  -17.79577922679184   -2.00782795019907
C           5.74577768671482  -18.53088463215076   -2.94529481375002
C           5.14546270402275  -17.92571240555424   -4.08562131480174
C           4.53917804916444  -18.82619657186242   -4.89953217543426
S           4.69437979264261  -20.42790748089237   -4.28211990877788
C           5.58416933421874  -19.87815062251042   -2.91456930777889
O           5.19928617671429  -16.58417626511869   -4.29549118469093
C           7.15096583201201  -15.72769956455619   -1.22087502118288
C           7.69009133403364  -16.32581957677793   -0.11336869674353
C           8.37544580759219  -15.64709585852085    0.90091811000474
S           8.64970631152883  -13.92324808705932    0.85015085300949
C           9.47618574031073  -13.93447202071930    2.33796449183680
C           9.56069419674419  -15.19721514524384    2.88975906290574
C           8.93319692170800  -16.18834246942153    2.07494732039749
C           8.93637793093912  -17.51648009574971    2.51049538996112
C           9.52962771561668  -17.88081445822533    3.70174360222601
O           9.43776469182176  -19.20232687741861    3.97619368957240
C           9.99162101020679  -19.79119263340183    5.13266186084187
C          10.16323198750039  -16.87907063451638    4.51804778504245
O          10.73413240387257  -17.30088354538025    5.68373669436302
C          11.36672454734627  -16.35372604480687    6.51024487407477
C          10.16949671164235  -15.57284030267845    4.10669347325376
H           4.68758995669700    6.53543348889570   -7.46784428247466
H           3.82724159609020    3.18183167457904  -10.41424966662442
H           6.48866691685845    1.94512664480695   -4.68619145396487
H           4.67524178448542   -0.72714249508563   -6.96134790184994
H           7.54169340130504   -3.77793197642756   -3.40309904735171
H           6.76971701605943   -6.19099973094391   -4.06100017986972
H           4.87903801230542   -6.22884607798618   -6.48196845623621
H           6.62025986384378   -8.44762364255950   -3.73696391098335
H           4.08770176146530  -12.28935966500236   -6.71990560405993
H           4.74428715225245  -14.48079554693806   -5.37386104749150
H           6.42749972805317  -13.83019585904860   -2.89899852094719
H           4.01730671703130  -18.64243140821055   -5.81491643540973
H           5.93353314569061  -20.56810896422431   -2.17548709622743
H           7.25177517565342  -14.66111305389977   -1.33260302758602
H           7.58524508167006  -17.39466290586718    0.00608117260102
H           9.86113447371894  -13.01794789221001    2.73979147210449
H           8.47231266412006  -18.29507874388622    1.92763167996658
H           9.75638318391836  -20.85176596644430    5.04402245154429
H           9.54234271854171  -19.39415456715141    6.04481265735043
H          11.07449678152214  -19.66110895689545    5.17517224068236
H          11.74163862428943  -16.91829777480663    7.36230384796826
H          10.66280437610747  -15.59283213971171    6.86067033253044
H          12.20443206436260  -15.87032751287598    5.99851181295400
H          10.63476072787842  -14.80199332882284    4.69815652331580
