96
 SCF done       -187.973691458042          0.000661400506
C           2.57973916752307   -1.82865432175857    0.14404700056899
C           3.47433491402807   -0.91927318059242    0.62494486573619
C           2.93812844008883    0.41372346439765    0.63904243193374
C           1.66587258423352    0.49041625369507    0.17891400411701
S           1.08980874056645   -1.06988450493433   -0.28132471019637
C           3.95767038568671    1.33338908303526    1.14701929456669
O           3.84903958760545    2.52898379892310    1.34635074219253
C           5.13636090090819    0.48698642307893    1.41982464766551
C           4.84818553390738   -0.86932481208269    1.06380480366973
C           5.74604074277169   -1.95369467932260    1.09904288354430
N           5.28873353061432   -3.26753586717200    1.29436878793549
O           6.00856659856840   -4.20146897033969    0.95532493427718
O           4.17397488815836   -3.42464952103018    1.77124058819157
N           7.12400665784803   -1.78599728119491    0.92263383724042
O           7.89260082245414   -2.57512953144842    1.47529739414083
O           7.52628178267602   -0.83595940136272    0.25558371274431
C           6.28499234467680    0.90294003930011    2.06363698009377
C           6.72187359584587    2.17580162316301    2.43556317674128
S           5.86141454607747    3.67963431745892    2.13280967909259
C           7.15941148760463    4.59802490905767    2.70794818953900
C           8.22677372308254    3.83338867671230    3.13268890878019
N           9.39117626678743    4.41542523958740    3.65956097507891
O           9.41952112786974    5.62037868182132    3.80201108651799
O          10.33120293013375    3.67685231977883    3.95192516309987
C           7.99020113007572    2.43156788844197    3.00270746687336
N           8.93870337315616    1.51608851544429    3.33220827257234
C           8.72065220070476    0.21255826440326    3.71528308340721
S           7.53051045577142   -0.12118564672741    4.97696606480621
C           7.82011401453376   -1.78828247595518    4.88287476957054
C           8.80654668685417   -2.09613460780967    3.98340767793694
N           9.17442233363724   -3.44170043869686    3.75183963251636
O          10.06604484668545   -3.68203947748301    2.94621350234284
O           8.59901503193383   -4.29721015944603    4.38839327113726
C           9.35530432163044   -0.94563120005586    3.30381038278432
N          10.28245442289536   -1.13798879423074    2.32294501950856
C          11.05564026866083   -0.26719163260261    1.61497824629097
C          11.61403701949698   -0.62928108998613    0.41196278265246
O          12.52756562341720    0.18899470824924   -0.23795818114327
C          12.81188922670440    1.36319222849980    0.38225204156827
C          12.20601997763152    1.73822108832679    1.61439420467605
C          12.62141503231797    2.94430971520783    2.07334097088898
S          13.76186472796740    3.65153696944675    0.99689781660184
C          13.67849421985582    2.30268754576260   -0.07441946017151
O          11.30460295300672    0.92086042195024    2.25119475193164
C          11.32289338994674   -1.85028797088861   -0.26056812913784
C          11.97851182892788   -2.24161636802070   -1.38262351856945
C          11.75989750306743   -3.46315981546615   -2.09773845143932
C          10.70950893351292   -4.32209028910873   -1.81058568578464
C          10.58417846656725   -5.53163736851127   -2.50373953152872
C           9.64944457563351   -6.56327609827140   -2.37671923651862
C           8.46493792579118   -6.65390684250604   -1.49052273297509
C           8.81184595199090   -6.51266344703955    0.01986066153354
N           8.97897144124351   -5.14233137505093    0.43664551558039
C           7.38329511197733   -5.64092006094687   -1.93468176116829
N           6.10600595165710   -6.02364215461550   -1.37238903126545
C          10.01746949976147   -7.57353273452232   -3.34325330966493
C           9.45159107623155   -8.75739525690362   -3.64802910843905
C          10.02585608328451   -9.65272273842809   -4.68925983803290
C          11.20826978113239   -9.08837287873612   -5.40955725852884
C          11.76151347262562   -7.90126511910589   -5.09539374882017
C          11.20639171441773   -7.10719854170274   -4.06477428003030
C          11.54311113469648   -5.86974255417297   -3.54330058766517
C          12.58195549089681   -4.96279370752503   -3.84592049601213
C          12.67566547770510   -3.80116422941875   -3.14628477985395
C          10.43338852869005  -10.95282656965499   -4.02196594500604
C           9.91528200589099  -12.13045454651784   -4.30925944010340
H           2.66734722145591   -2.89101501469141    0.04386385964258
H           1.03584890873629    1.35068649401071    0.07269278958784
H           6.98993031193917    0.12602668901663    2.31344523460898
H           7.12661399627547    5.67007503546248    2.73509248113277
H           9.85957565564884    1.92681180860744    3.52059742567508
H           7.26626379536297   -2.48775362221845    5.47783617886048
H          10.35931579115528   -2.12985342794271    2.07219841527833
H          12.31778558212974    3.44723028897475    2.96837885874255
H          14.26479753788938    2.27815166076606   -0.96852441601806
H          10.54196129058764   -2.46739663739252    0.15233340121294
H          12.76448781968345   -1.60066181091715   -1.75894637469211
H           9.99426015589094   -4.10523518410178   -1.03273227861601
H           8.02038843090123   -7.64590190706540   -1.61315260449310
H           9.74696991310573   -7.05183454076151    0.19750324326555
H           8.01285833514211   -7.02469286698800    0.57420185927754
H           8.08836909025082   -4.70004517157893    0.63658298905273
H           9.56010385791831   -5.06118816471666    1.26186781550028
H           7.30325864251166   -5.68925081475937   -3.02574720283232
H           7.71428506582442   -4.62999133882438   -1.66282636849060
H           5.34858470790316   -5.53318867992232   -1.83265702957391
H           6.06967870678949   -5.78912498296321   -0.38543023622637
H           8.57611794905864   -9.12556249607225   -3.13118611268136
H           9.23956685771470   -9.89294387055612   -5.41849778124508
H          11.61935229560578   -9.70774135945733   -6.19251145303907
H          12.62475502634799   -7.53593193529581   -5.63282588882529
H          13.29079112949152   -5.20112564805727   -4.62551439862529
H          13.46792914984737   -3.10036661160479   -3.36848252974790
H          11.20861596613295  -10.84594554220366   -3.27629012801499
H           9.14240865144201  -12.25233856639771   -5.05065901707699
H          10.24490364419436  -13.02746569559434   -3.81339173126980
