85
 SCF done       -169.978217070995          0.000303317659
C           8.52977780918407    0.34312686206579   -2.68237828807788
C           9.39557560021646   -0.34920985238373   -1.89025116612872
C           9.23415232725841   -0.02926899789992   -0.50500645899764
C           8.25760762244527    0.87894717554220   -0.26700839673667
S           7.50851827157768    1.36399567888360   -1.74566110314052
C          10.25636959144887   -0.73689570095934    0.26986303468551
O          10.46200116808878   -0.66985394245898    1.46786172852269
C          11.05572373688570   -1.48932176414087   -0.72010958537702
C          10.52011930645779   -1.26716253956825   -2.04426702038353
C          10.84412995203407   -1.84304754373886   -3.25094547695894
N           9.90518405209041   -1.79761014008382   -4.35669026831007
O           8.74858965549258   -2.06130691940624   -4.11088814352559
O          10.34055481769270   -1.48901829128452   -5.44014232436651
N          12.04194971787406   -2.53215483951001   -3.58783845504383
O          11.96396545745061   -3.41219812676363   -4.42037035315963
O          13.07094892178288   -2.20198380483070   -3.02319483807305
C          12.16876158284471   -2.22811721933929   -0.36734932273148
C          12.50194065400621   -2.75787356297055    0.88101747347084
S          14.17200866159644   -3.30527165060392    1.08898256011867
C          13.86018196379126   -3.92122831021887    2.65396045015907
C          12.55576203282294   -3.75788298917628    3.02170393617292
C          11.77940556481552   -3.08775129437437    2.02708404392875
S          10.10977133211941   -2.93697407237233    2.43595521123541
C          10.39234357667920   -3.76289688601314    3.95211066800386
C          11.75545007646674   -4.13370711890959    4.15152618684930
C          11.95367183983701   -4.76061199801709    5.34519913236145
S          10.48945059284024   -4.90613163130283    6.23642608435476
C           9.55171712101465   -4.09770966657352    4.99014394706578
C           8.16197493343235   -3.85503001670953    5.10582506374464
C           7.42943226218651   -4.23996277689078    6.18020385878125
C           6.03756062249130   -3.99103243755697    6.33302114837567
C           5.29602997170212   -4.39960928507094    7.42228833979674
O           3.95280774914795   -4.11618111051837    7.55636152806862
C           3.39680794491262   -3.40881252846614    6.53328417108639
C           4.15782041801241   -2.99757891799051    5.40104411287418
C           3.42123129914631   -2.30902970145081    4.49457029278336
S           1.78320467846878   -2.15166345094315    5.01024964159956
C           2.09853835563730   -3.02386424278374    6.46349113363445
O           5.48348125154940   -3.28259977543871    5.28157440536279
C           5.83959688418668   -5.15286113601966    8.49982132779806
C           5.14976080741104   -5.54690692195015    9.59877244503480
C           5.73890497928786   -6.31014410159246   10.63898283435897
S           4.80571041685949   -6.75623715393711   12.05539809072564
C           6.12886973455007   -7.59549172713140   12.76442897662909
C           7.23813006329694   -7.54917972982698   11.97286954473740
C           7.01448593380848   -6.81790320356832   10.76709596454582
S           8.41798047292533   -6.74632271569700    9.72488203009774
C           9.32672608370989   -7.69777487004462   10.88012353823571
C           8.58009894852288   -8.05882480790157   12.04028892782304
C           9.31883705680569   -8.79802759508556   12.91379434678591
S          10.92115943294169   -9.05833569827737   12.32774527515794
C          10.62072786506764   -8.15274092162476   10.85418007954637
C          11.58541939618989   -7.95937647449568    9.83293788475078
C          12.84300375000090   -8.45601513149050    9.85585847055439
C          13.80577924880303   -8.27063013856510    8.83442800574101
S          13.43830088024476   -7.33967629350045    7.40000535219061
C          15.01103980238154   -7.61007074029001    6.77093354789742
C          15.78158304316563   -8.36641273085730    7.59144924735266
C          15.11005857165961   -8.75721174803372    8.78051581608862
N          15.65752935649263   -9.56707880055548    9.73403631812600
C          17.07821665192489   -9.82481887650709    9.81110818766492
C          17.37217370525385  -10.74406514372368   10.98616465960444
H           8.40259171322115    0.34126851737795   -3.74614301893087
H           7.93259947681173    1.29418003698700    0.66553577719372
H          12.91322614883539   -2.40762736434099   -1.13568369798748
H          14.64976729954052   -4.37343052198134    3.22092826576634
H          12.86055681951993   -5.14950024978467    5.76069174449110
H           7.69794449743600   -3.33175204633871    4.28185852754385
H           7.93628199576851   -4.76196521401552    6.97532958338456
H           3.74280813172781   -1.89153080202924    3.56375498445635
H           1.31848691426817   -3.20112799842069    7.17361738950391
H           6.87560180569894   -5.42698662874993    8.41781758128583
H           4.10928184010264   -5.28176471238408    9.71337392193100
H           6.00910801383453   -8.07064339062246   13.71694249801387
H           9.03115095231365   -9.20790239959635   13.86026891512658
H          11.25135731338318   -7.37179882703078    8.98649129012236
H          13.14423349934282   -9.04767363411331   10.71231836314014
H          15.27825592226081   -7.19367791288005    5.81987287286705
H          16.79501798630017   -8.63717176663151    7.36017664557479
H          15.17318446634792   -9.59228261093815   10.61823473085521
H          17.64699426094732   -8.88826293576574    9.91891310732402
H          17.39317551802125  -10.30798086131660    8.88067942448302
H          17.09113628896162  -10.26935468696800   11.92426447043151
H          18.43319816705031  -10.97444521623325   11.02273221090699
H          16.81739538983074  -11.67362872390181   10.88497658766607
