104
 SCF done       -191.655752059969          0.000916601131
C           6.00877253622345  -19.52990944260178  -23.45282166072275
C           5.50043283493086  -19.12937550263078  -22.25479926220962
C           6.51078742357222  -19.03139184767976  -21.24120146701006
C           7.74943837385723  -19.36056492310913  -21.67841382447426
S           7.70786717114866  -19.79393755105960  -23.34993967182625
C           5.91029317649779  -18.58332915972358  -19.97499573315822
O           6.49157460602761  -18.36323753360078  -18.93517272114882
C           4.47633823156526  -18.38794934460833  -20.29751657587111
C           4.21822416334151  -18.82515402199657  -21.64428165617855
C           2.96327603611915  -19.04968281306667  -22.17274441500951
N           2.71339760585737  -19.27513125480961  -23.55277138600625
O           1.72646309990121  -19.91458758510067  -23.85392123816638
O           3.51468363746380  -18.82443190814453  -24.35369671778844
N           1.79154098090532  -19.16224484555380  -21.33594519988237
O           0.77777174369974  -18.62322228208831  -21.71717501499849
O           1.90599077669286  -19.78954163907489  -20.30208655831254
C           3.55692931523362  -17.67652330237972  -19.54366499686095
C           3.58202149585518  -17.34332902449188  -18.19491657585863
S           2.35554948279296  -16.19232890974889  -17.62167368679444
C           2.92206665294694  -16.34022385813574  -16.02363939097405
C           3.99854800355001  -17.25515870004086  -15.92893303484803
C           4.36716882461475  -17.81184957729870  -17.12946156863541
C           4.39388539939479  -17.32582709546812  -14.51232490530813
O           5.25834568138482  -18.00416618200897  -14.01163101140706
C           3.46313151788914  -16.35327477092140  -13.81609478970107
C           2.61068354018275  -15.80253065583434  -14.76512687146094
C           3.47086065359924  -16.05635802491997  -12.44833714794714
C           4.31413346323827  -16.64849759387512  -11.53917446086907
C           4.35566878132866  -16.36158592321394  -10.17129619652352
S           5.47192644261959  -17.26879132172014   -9.14709002428577
C           4.95948630675050  -16.39740221928960   -7.76818473946304
C           3.97229707520179  -15.44078491564444   -8.08885945575391
C           3.63233362779046  -15.42186123916302   -9.42295425970670
C           3.61994464906624  -14.74465483271182   -6.83638279954605
O           2.82673548659646  -13.85147760102217   -6.66209651150158
C           4.48211922081181  -15.40143517649559   -5.78550748514787
C           5.25972942582916  -16.37665536080189   -6.39655809070355
C           4.41376244479954  -14.99757949335071   -4.44755722325658
C           5.10849264328182  -15.58004916203753   -3.41692593364804
C           5.03141780759497  -15.14005026477514   -2.08114391911972
C           5.67721965755509  -15.75987916326857   -1.01198413142766
O           5.59281466781309  -15.27546268940046    0.27094023963867
C           4.82650732349376  -14.16435577317080    0.44796970816147
C           4.15083659613572  -13.54112387968645   -0.63913938835656
C           3.43616384467523  -12.45261265914501   -0.25968790194278
S           3.58025010787495  -12.17345181240780    1.43511558457470
C           4.61303971956638  -13.53724440707892    1.63251082162065
O           4.24592391291405  -14.01894473173650   -1.90797682944739
C           6.45343873138160  -16.94126979093719   -1.12936593533573
C           7.04833773530122  -17.55190764638797   -0.06856498512297
C           7.81091897411684  -18.76040923961942   -0.10163723488611
C           8.27849647538293  -19.27433607007309    1.09650802715582
C           9.00839067625988  -20.47460782475912    1.12901102647867
C           9.56138775524594  -21.19938585136651    2.18133696315113
C           9.57505890720065  -20.91371274031499    3.64489063377657
C          10.72788313768009  -19.94743952217483    4.00105814334230
N          10.49876484883291  -18.63179219489949    3.43287153840724
C           8.23362040271931  -20.39205828412858    4.18849722863339
N           8.06141417642050  -20.86390512055272    5.55461237955028
C          10.20454057587263  -22.35226069562184    1.59496729322133
C          10.88147143785604  -23.37193652600699    2.15797765773483
C          11.48472900805164  -24.45663358067941    1.33793096206584
C          11.21623059061659  -24.35113012360657   -0.12934318167205
C          10.53376139291055  -23.33047374371535   -0.67815466502940
C          10.00928279242817  -22.29992258395970    0.14094177974603
C           9.28232688391677  -21.16119813624780   -0.13014563133444
C           8.80633619018742  -20.60935087702088   -1.34301331757071
C           8.09492946757488  -19.45668011428556   -1.32583265883390
C          12.98366679795104  -24.45350234803537    1.56894726789655
C          13.65322100858317  -25.44427236588736    2.12359532083626
H           5.51469970344039  -19.65047479056014  -24.39567565550188
H           8.67307647452008  -19.38495362450873  -21.13603058332965
H           2.70226041772208  -17.27792544468019  -20.08160536390769
H           5.16105065823837  -18.52192537281977  -17.26490414326500
H           1.83660703843095  -15.08390858207294  -14.56678912875494
H           2.75756207899563  -15.31428761312503  -12.11137221590889
H           5.00297184732672  -17.39983927593973  -11.89919811570350
H           2.90253371398758  -14.76394616077632   -9.85759022967650
H           5.98051635768856  -17.01223775005481   -5.91668145546358
H           3.74839281281512  -14.17175529638514   -4.23580906109641
H           5.74741928884525  -16.41841314803550   -3.63416434799311
H           2.84166872439863  -11.80778268955877   -0.87192788591746
H           4.99944019243442  -13.79660832872715    2.59569514016225
H           6.54308800227472  -17.36469416156361   -2.11379539101232
H           6.92562434464687  -17.10060144464789    0.90689437637624
H           8.08070474301688  -18.74332875742768    2.01399309579600
H           9.77364021617056  -21.85324366057888    4.17070865676116
H          11.67590321689647  -20.40750048951066    3.67228991684002
H          10.77010119898358  -19.83718770307095    5.08827955771461
H          10.54031455206460  -18.67736094155458    2.41992096095789
H          11.21194330834659  -17.98276905149083    3.74547854549121
H           7.41660412927093  -20.80761136181246    3.59329044265509
H           8.21506379910552  -19.29672303695170    4.10372390831041
H           8.74048492377398  -20.42165445470125    6.16525463391989
H           7.13901506550154  -20.62109638341550    5.89822584176543
H          11.03937308823376  -23.43681677813586    3.22612370702490
H          11.10100375971873  -25.41909106649471    1.70488706519146
H          11.62783441087907  -25.14194755475912   -0.73803594605817
H          10.36930708125692  -23.28655805106277   -1.74499500589451
H           9.01674595434598  -21.11695523495243   -2.27297570736673
H           7.73624808474132  -19.04129865065653   -2.25390460273103
H          13.48453305284788  -23.55798110160129    1.22842356161540
H          13.16824437639555  -26.34407060782978    2.46540782622315
H          14.72061924888433  -25.39871407238574    2.25707907306335
