85
 SCF done       -168.541019397496          0.000635542638
C           7.45431462384555   -6.10799986834103    9.42896749098151
C           7.63090352813196   -6.46983624432800    8.12781012670269
C           6.39249874758637   -6.50631231659006    7.40242749911471
C           5.31350833995973   -6.18645786014343    8.15730575855758
S           5.79205889912126   -5.82079825654699    9.77474169620489
C           6.65019007685515   -6.88359856856928    6.00826823310466
O           5.83427545620625   -6.99663057822009    5.11341330518017
C           8.11185675476020   -7.03486580270305    5.92120327300429
C           8.69308552080111   -6.90795648163753    7.23745271761315
C           9.97277671065275   -7.27867261343390    7.57899827165419
N          10.59577651120926   -6.96528686138617    8.81981168819173
O          10.19376734986505   -5.98629497899036    9.42275689114837
O          11.48331066365830   -7.69757634967304    9.20416300314036
N          10.78078791191303   -8.11375840144539    6.71419314099489
O          10.23549980545881   -9.07388026037463    6.21269357060802
O          11.93575026034737   -7.79686422041220    6.55365097399697
C           8.83187172885351   -7.07404255205238    4.74219521455785
C           8.39847383019928   -7.23751867815978    3.42994639575526
S           6.75461671899697   -7.61461755254807    2.91007997049620
C           7.26874264915314   -7.68031109055596    1.28814895099672
C           8.64642934246710   -7.40069348804128    1.13659289790583
C           9.27817851377776   -7.16343430343844    2.32937159298605
C           8.95480815959664   -7.45345126089886   -0.30470506579551
O          10.00399355757459   -7.27358213968712   -0.86940584399415
C           7.62905436023285   -7.78174626586870   -0.95599897221872
C           6.66855318174564   -7.90458020018635    0.02646444127584
C           7.54134111848874   -7.89049488524251   -2.35775655272809
C           6.41473248448139   -8.17497633265834   -3.06751947340911
C           6.36114191362525   -8.23726739533309   -4.47817186900171
C           5.25442125629518   -8.51551310833997   -5.24818411609946
C           5.49923469882714   -8.47577410665788   -6.63423883946716
C           6.85545449634496   -8.15291919242090   -6.92566186471290
S           7.77886462567300   -7.92065452919867   -5.46909809285257
C           7.32765639076209   -8.03731230715947   -8.21175708517474
C           6.42938348624973   -8.24376311962034   -9.26149373324533
C           5.07518394963427   -8.57486022559911   -8.97002278715697
C           4.60236351573701   -8.69451837911671   -7.68670471038631
S           4.14783790342960   -8.77877130123264  -10.43357872445538
C           5.55752451798817   -8.40829981916680  -11.41528627725291
C           6.66694834186522   -8.15851574628778  -10.64915191935807
C           5.45139105537559   -8.37577642094126  -12.82628969456841
S           6.84534287501361   -7.94071690042045  -13.80984321915385
C           5.91062615105659   -8.09827952180127  -15.23675864197186
C           4.58920382273556   -8.47716310685815  -14.95796740789948
C           4.33161316456771   -8.63233503052566  -13.60324736711603
C           3.88500946222073   -8.57626841897738  -16.24568972570784
O           2.73784444391745   -8.88002505012325  -16.46793653606014
C           4.93057446716823   -8.20343247292570  -17.27812818193180
C           6.12050707907219   -7.93339392393399  -16.62246619336399
C           4.60255649999228   -8.16541150289670  -18.63535809153830
C           5.45021479706285   -7.80436597471831  -19.65868309298674
C           5.06278405377330   -7.76849251453237  -20.99383021508532
C           5.88256087739775   -7.39103359792630  -22.03946108180732
C           5.53575474908483   -7.33181510615802  -23.40741401949706
C           6.54399338590292   -6.91567026426589  -24.22527181786079
C           7.74681678193552   -6.62285555900152  -23.54410491743750
S           7.55023681004161   -6.89763666682363  -21.82553205141663
C           8.93825475385952   -6.18065109478333  -24.08100346966163
C           9.21977084006799   -5.91848801173259  -25.44995959615936
C          10.48067005910334   -5.49059690082661  -25.68657871018274
C          11.29769133958479   -5.38162009842422  -24.51305578892270
S          10.34709971032308   -5.86086376808449  -23.09727206571794
C          12.57675284048638   -4.98827028077726  -24.43440376242873
H           8.18541249250287   -5.95382654259867   10.19688949794937
H           4.28051137817920   -6.14636928149357    7.87549136942697
H           9.90102508075772   -6.90675111138490    4.81475604965260
H          10.32543846908335   -6.94741082222864    2.44459187638832
H           5.62895445276811   -8.13224370985527   -0.12142582614391
H           8.46902422982600   -7.71890035738129   -2.89144589652349
H           5.48286520118895   -8.36213842092945   -2.55070135716914
H           4.29073044697024   -8.73689224136448   -4.82419437209780
H           8.35734016465553   -7.78862467298646   -8.41276400215320
H           3.57224362266131   -8.94255702895841   -7.48617985698522
H           7.62436352470027   -7.91474474250833  -11.07492842793985
H           3.38417734349925   -8.91378764215167  -13.17952336111059
H           7.05039940844697   -7.64441066839701  -17.07554999840189
H           3.58164007557762   -8.43739089767394  -18.87512264823536
H           6.46955166282064   -7.52463236850172  -19.42588706252054
H           4.04774536999501   -8.04918058178442  -21.24399940166209
H           4.55002734158384   -7.59792760553799  -23.74631176161603
H           6.45296383189717   -6.81266879455031  -25.29145626293908
H           8.47395961526978   -6.05685319514006  -26.21227144267085
H          10.87559349811707   -5.24289098004595  -26.65564369726643
H          13.11929613990090   -4.70510350840391  -25.31900516615648
H          13.09788472733448   -4.94297499641086  -23.49577378006951
