99
 SCF done       -188.901347378546          0.000718214172
C          10.63822848835077    2.22081347942796    0.67130615535600
C           9.40248717403219    1.66959651887145    0.55279264844352
C           8.87175299569923    1.24002622136116    1.81526676840859
C           9.70388368019386    1.47041378332560    2.85792516832040
S          11.16417478729940    2.22116065865375    2.31686723207148
C           7.53745526984191    0.65648063169109    1.61323411107935
O           6.77256862420600    0.24721404811708    2.46565555412482
C           7.30535595510248    0.76078385757743    0.16055657430546
C           8.44762717262754    1.30583123168266   -0.48472085254795
C           8.64880105742622    1.33807225539859   -1.86099877052079
N           9.64271824164042    2.13979967535036   -2.47349712866657
O          10.07498341284600    1.79890435515747   -3.55707902453985
O          10.02767777133027    3.12429845211297   -1.86073795635606
N           7.90981054386451    0.49291366297257   -2.74080042725334
O           7.61795522731891    0.90935896387755   -3.83947881150731
O           7.61471753282103   -0.62109282700144   -2.32534114359892
C           6.05336508388766    0.59156653693530   -0.43791847906537
C           4.94961174125821   -0.08710892986125    0.05961609033542
C           4.95633979858517   -1.15271296699032    0.98421818396742
O           3.83858276636757   -1.51551832301880    1.66010835416928
C           2.67856618890449   -0.89415625672031    1.30387466919392
C           2.62938389570957    0.01214295959071    0.20509026426223
C           1.37432111627812    0.46462286616301   -0.04178862523558
S           0.23919238466289   -0.20768156020889    1.06923305237604
C           1.46376322847532   -1.10817780736978    1.87250437735206
O           3.74881028896186    0.37644837098987   -0.46863993815253
C           6.05791561404688   -1.98736610671868    1.25915608086482
C           7.12930471146191   -2.16619202224072    0.42540346789133
C           8.27673421664375   -2.90295184250525    0.73418727064140
S           9.49359197362874   -3.12682862441885   -0.51688582117078
C           8.65794535712661   -3.49207557327810    1.94508682911123
C           9.88418780132652   -4.12376574428972    1.87210836431037
C          10.79973225371157   -4.87423097711033    2.73521857890348
C          10.62491425793828   -5.17465675112974    4.04040411968087
C          11.66839453370717   -5.88614070842676    4.85185548233255
N          11.37587384526158   -7.31942732827777    4.84521451060199
C           9.34098841926461   -4.85682448511873    4.75356357875402
N           9.30751467752831   -5.41042670082734    6.09334784923525
C          10.46094023695177   -4.00888607696053    0.57878894783184
C          11.68851649651771   -4.67666123800698    0.57761386597067
S          12.91950784777793   -5.06041551306033   -0.55090238931903
C          11.92758868091979   -5.21564683289782    1.86280529397619
C          13.10473453565184   -5.95198566580872    1.90016015963548
C          13.77422093946549   -5.97276676332165    0.67927354639527
C          14.97538224793717   -6.62502102281421    0.32925904236969
C          15.76947833247307   -7.33401302595973    1.17939951565864
C          16.94332357797837   -8.01134954500195    0.79887433343106
S          17.49088515665377   -8.06116146591520   -0.87690576543873
C          18.83018584717550   -9.03421968684780   -0.43573603391961
C          18.85486492255080   -9.29687701977624    0.94517137317216
C          17.79951060867564   -8.72710281230527    1.63430127286663
C          20.03705145667876  -10.13353982107162    1.20703860423672
O          20.43884801140675  -10.57726091450602    2.25628081094962
C          20.66609250078033  -10.33516986072362   -0.15443451682501
C          19.90803969577543   -9.65250662467335   -1.09604872472289
C          21.81127433378669  -11.11919458341550   -0.29783630322787
C          22.43489484002135  -11.42353288370122   -1.48868006420549
C          23.56297594099302  -12.23008172978419   -1.57482383450950
C          24.18681619712804  -12.58563625927375   -2.75587827727704
C          25.32506743462067  -13.40864214526468   -2.89625976505950
C          25.71851580284237  -13.60861980657291   -4.18677621577871
C          24.90791649848352  -12.95095488505869   -5.13824293067936
S          23.63024836285272  -12.06373743190021   -4.33325014599781
C          25.03518352019107  -12.96318407957522   -6.51237329092430
C          26.01821243128606  -13.64738631622386   -7.27811621078809
C          25.89481894316678  -13.48460722740636   -8.61526941498407
C          24.79634905772431  -12.65175997649475   -9.01004660584707
S          23.93966252810022  -12.09605673388118   -7.56277775524223
C          24.42596347408529  -12.31284430556389  -10.25326479752700
H          11.26275014451900    2.66640130322076   -0.07615961172552
H           9.56674712445636    1.24624625446062    3.89667551441861
H           5.83854679089340    1.18926468489683   -1.31824493383364
H           1.05590559834158    1.14357609472435   -0.80436330316161
H           1.22685427157497   -1.73887374145821    2.70354871362000
H           5.96894796082044   -2.56308629868821    2.16884326713794
H           7.10763964016612   -1.71912100732595   -0.55949671017667
H           8.03439064542875   -3.41474306375040    2.81437712476466
H          11.58463885355744   -5.54159267111706    5.88576072792318
H          12.67014186649903   -5.63205263164144    4.47831886382485
H          11.45709789041758   -7.68795570331906    3.90256542479992
H          12.03451537072714   -7.81508344234398    5.43588303360864
H           8.50739104841214   -5.20853447852162    4.12043389433470
H           9.24797431647971   -3.76682670365886    4.84151686777237
H           9.43065706687378   -6.41712575334721    6.05167147085380
H           8.41610018949205   -5.21156248741851    6.53190079069177
H          13.48987693726217   -6.48268824573460    2.75009605355070
H          15.27335820134475   -6.54863474761936   -0.70852155349969
H          15.51168739481947   -7.40596926064102    2.22718247353509
H          17.63819557581553   -8.81482382196233    2.69367903095713
H          20.09949103147510   -9.59806581923176   -2.15150905457529
H          22.21615680296713  -11.52619187004749    0.62096101409163
H          22.02821706032539  -11.03129356377750   -2.41180959546803
H          23.98861334877276  -12.62193780323659   -0.65988798407756
H          25.81934476814789  -13.83088550027267   -2.03904695614305
H          26.56301304136545  -14.20851498503032   -4.47414924273994
H          26.78369580037642  -14.23869301847324   -6.80802041204447
H          26.54292838282309  -13.92469040970422   -9.35195439811967
H          24.97335792103085  -12.67311236150864  -11.10630325068307
H          23.57907231585646  -11.67778979723405  -10.43799932560012
