81
 SCF done       -170.204763226283          0.000982448170
C           5.91232361643842    0.23455604827005    6.09553236654538
C           5.95047886828140   -0.75347874906570    5.15871331738653
C           5.16161374553807   -0.43631857777922    4.00897760441270
C           4.53031982655499    0.76059991543595    4.09309228641326
S           4.90239342973597    1.53469396543738    5.58820107439267
C           5.31159627002801   -1.50658418019203    3.02199284509504
O           4.74425600735561   -1.59673712136005    1.94922220631355
C           6.29356497849435   -2.44706091466060    3.59643988162540
C           6.63722940591793   -2.02439096526646    4.93415771219781
C           7.36331409966811   -2.63105203059546    5.93476494744367
N           7.19935422968917   -2.16317004870101    7.30464467245695
O           6.06616548587608   -2.07691674120709    7.72157494427156
O           8.19943434181893   -1.87930498298187    7.91760190169537
N           8.28620962671265   -3.70491482243198    5.85165434843795
O           8.86950509015587   -3.89242600903735    4.79656495078860
O           8.44455180009509   -4.37556133446465    6.85220432851515
C           6.78231626938707   -3.55087027196528    2.91752742102565
C           6.40270355356313   -4.12017762993873    1.70733807472782
S           5.05802817563098   -3.63550006649445    0.66814007093207
C           5.39517129702381   -4.92664524088868   -0.39134656948764
C           6.51129455757069   -5.69752247848976    0.01294244217433
C           7.06890909181456   -5.25131219826808    1.18155784263278
C           6.70162985874544   -6.76414203002442   -0.99068457702457
O           7.52752304227893   -7.63916257336041   -1.02741421705260
C           5.59675508476012   -6.52500846052658   -1.99867313410761
C           4.86040366687491   -5.42397423589978   -1.59685685770956
C           5.44307341607583   -7.35798085970901   -3.11855008831811
C           4.45901030015199   -7.19378217513221   -4.05696305536538
C           4.27404805936319   -8.01034918916015   -5.17898903067466
S           2.95653761560536   -7.69229764488414   -6.30346124262187
C           3.34123466351955   -9.03606618721767   -7.35446674981487
C           4.46394500597311   -9.70384864304138   -6.84004032683575
C           4.96273737048884   -9.12628051525595   -5.64394906375552
O           6.03217794099442   -9.80523486286222   -5.19748600118476
C           6.22438918805892  -10.81144254594476   -6.09379507763240
N           7.29839495819001  -11.70613078676333   -5.88087427523534
O           7.43009140340077  -12.59033092011162   -6.70875788792968
O           8.00074093080549  -11.53539114662409   -4.90918864353718
C           5.30569263833250  -10.80486515826426   -7.11417649104642
C           2.58153376176819   -9.31037366993732   -8.49068682649463
S           2.96290912120962  -10.66809470125556   -9.55116080104467
C           1.63460246391767  -10.27443709916149  -10.56404973384226
C           0.93610251504377   -9.13993408381678  -10.09367817301426
C           1.46006471194841   -8.60235655508798   -8.94135609127533
C          -0.17582862923425   -8.89623982381509  -11.02918777996321
O          -1.01622765178763   -8.03071824632965  -11.00151172830070
C          -0.04644408730737   -9.99259343516934  -12.06019828193202
C           1.05537782498943  -10.78288025229812  -11.73289124291172
C          -0.95545535475771  -10.07596205559622  -13.10916846716661
C          -0.95498056197629  -11.02049182959410  -14.11825745882192
C          -1.90381176106910  -11.03956196502485  -15.12834403894267
C          -1.94518350016251  -11.96145957562521  -16.16154927049052
C          -2.89626628011618  -12.01361838926248  -17.20168304892089
C          -2.69803730688615  -13.02881657759190  -18.09237968997903
C          -1.57476882971180  -13.83083167505999  -17.79818124448236
S          -0.78063401521523  -13.25272976405862  -16.34886410053947
C          -1.10637599510746  -14.92313830386664  -18.50342392240106
C          -1.66322557557266  -15.47936073752843  -19.68796739101223
C          -0.99050031410781  -16.55042673980685  -20.16732540427931
C           0.15605823017636  -16.92247772657512  -19.39065024632781
S           0.31054265507029  -15.81618476212639  -18.01552485440185
C           1.01121278211428  -17.93000152010827  -19.61627824902638
H           6.39794124962896    0.31795882614257    7.04701459053711
H           3.88707989244097    1.23668038024987    3.38067418277336
H           7.62472801262186   -4.06023676003165    3.37176918334060
H           7.91907106431451   -5.68927952657652    1.67376426335765
H           4.01211138060723   -5.00240163823101   -2.10383073327871
H           6.15423763371296   -8.16733289039260   -3.21778520166694
H           3.75336529194302   -6.38187617829134   -3.94906725040498
H           5.26529510548654  -11.49986518140989   -7.92702908388372
H           1.07919217366828   -7.74141535877033   -8.42180542691841
H           1.40560912326694  -11.63973489527532  -12.27755969043064
H          -1.72825983929844   -9.31642039555371  -13.11413717566069
H          -0.18622943440787  -11.78214211675313  -14.12973012559928
H          -2.67810074332599  -10.28305501871287  -15.12211323395281
H          -3.69949899086850  -11.30087526661900  -17.26331297192238
H          -3.32680775138692  -13.21509995604979  -18.94395127931271
H          -2.54426531159275  -15.06387476420916  -20.14319305953488
H          -1.25892731030207  -17.10194449699206  -21.05043442806259
H           0.88265194313239  -18.57906773376847  -20.46444870250991
H           1.84484339632753  -18.12152517074927  -18.96578776142460
