73
 SCF done       -157.260803864425          0.000871152666
C          18.28540621432496   -4.84715036185422    0.14983629702021
C          17.09797460616966   -5.38519029011314   -0.24720775502609
C          16.15116210702452   -4.38081219362569   -0.63848726637495
C          16.62500571483434   -3.11670858882380   -0.52274507937008
S          18.25005657255029   -3.12873420819780    0.05863069509317
C          14.89848847728426   -5.01124773606097   -1.07896718078050
O          13.90973878809698   -4.44741681609652   -1.49096101844762
C          15.16386946291656   -6.46893547348651   -0.97391404825959
C          16.44872376095737   -6.67974209265887   -0.34405876385714
C          16.87174353508648   -7.87288947985576    0.19347562332128
N          18.19496974944440   -8.11926835136913    0.65873197100171
O          18.33776822474306   -8.95935926341932    1.52171936074195
O          19.09805984912848   -7.46573331744592    0.16910897990440
N          15.96307492724391   -8.98026228884255    0.41762248304637
O          14.88440677386039   -8.72018954871091    0.90611714794755
O          16.34554429433364  -10.08206101957973    0.10139253498952
C          14.45334723504443   -7.48231502344324   -1.58487040739426
C          13.16444760734525   -7.48286772673569   -2.11841143162218
S          12.69077242505306   -8.90906390205669   -3.06116889783720
C          11.13546852071974   -8.26626124001814   -3.30464751999654
C          10.97624785015088   -7.01560671463901   -2.66805938040882
C          12.10044149669438   -6.57771214413712   -2.00583453551194
C           9.59996773853129   -6.55703206017449   -2.93280278420478
O           9.06160565220389   -5.54891063716856   -2.54819618487521
C           9.00465046933195   -7.64891338341841   -3.80253524111359
C           9.95676781221450   -8.63875965772869   -3.98084513670581
C           7.71611083029225   -7.63891486926272   -4.35560469934977
C           6.79960385798102   -6.63782847971044   -4.15661640589080
C           5.53820458646748   -6.62667776980049   -4.76233849694880
S           4.41228637318111   -5.31995007282846   -4.47022455319964
C           4.96609864897761   -7.53607624400810   -5.66004714264429
N           5.42130001501011   -8.69626160958156   -6.20008696131172
C           4.55942295095773   -9.20494902384780   -6.99244286602751
S           3.04912460297458   -8.33043136366953   -7.19738442657594
C           3.66917131614190   -7.15792249632889   -6.08651846841322
C           3.19288713157190   -5.97172412834407   -5.54515375171802
C           1.95637431504687   -5.35297519398286   -5.79916620573042
C           1.54225875245645   -4.19786966410579   -5.20616632323958
C           0.31960876265999   -3.54756985052984   -5.46543347130734
S          -0.08761183521336   -2.09630277108836   -4.55857058336851
C          -1.56393585934887   -1.94793626996367   -5.40416089186409
C          -1.73002009818478   -2.97080530200810   -6.34632384851505
C          -0.68057569507766   -3.87096435557248   -6.38343590676526
C          -3.02323590496838   -2.73433213954754   -7.02298057039006
O          -3.54620849893077   -3.36822391433839   -7.90370753089617
C          -3.57029908495221   -1.48797864302408   -6.36179954841833
C          -2.67287032643156   -1.06035275938260   -5.41260352740088
C          -4.81901669786669   -0.96240418087541   -6.76189638577782
C          -5.43535915057338    0.11908277278226   -6.22006346330047
C          -6.68959465930955    0.61540885918892   -6.64684321979567
S          -7.60193817780373   -0.07805757085545   -7.96940204069041
C          -8.87331060171490    1.06429913890429   -7.78561089220122
C          -8.62189048574610    1.93357445200909   -6.76719647669349
C          -7.38641092174758    1.68558758787356   -6.11939026194193
S          -6.97541538988187    2.73991633011473   -4.80143830785129
C          -8.43220130284389    3.72190979515020   -4.88823831859427
S          -8.70284390906300    4.96122142811450   -3.87261918444511
S          -9.56434458213876    3.26766866823929   -6.15292728607367
H          19.18733696721673   -5.34045578444518    0.45134536329037
H          16.13074646242584   -2.18970721512596   -0.73300159634577
H          14.97907548985398   -8.42242511866640   -1.72119435438205
H          12.18144559135582   -5.65196799363309   -1.46741442832635
H           9.82019307306558   -9.54223204903367   -4.54648216275164
H           7.44105792001364   -8.47207708276937   -4.99046297701541
H           7.04764596322392   -5.80507433963286   -3.51437140431803
H           4.71515627600322  -10.12207260136519   -7.52559516530754
H           1.32374660079508   -5.85812416418513   -6.51614716154256
H           2.19362128270376   -3.73354668155991   -4.47651346862953
H          -0.62801211770408   -4.71828234710669   -7.04143136076516
H          -2.77199918612052   -0.20075981121485   -4.77568187704442
H          -5.30563125581687   -1.49589056348864   -7.57015148216491
H          -4.97681048297888    0.66167369562182   -5.40395905022177
H          -9.72650141124033    1.03148521655136   -8.43124931841556
