89
 SCF done       -181.035575866893          0.000742623279
C           1.24053019967208    6.02707956585237   -5.03076557327807
C           1.56639887169185    4.73710493609472   -4.73776637489644
C           0.93150098832098    3.80292847267411   -5.62454304211946
C           0.13893361994009    4.39170869803568   -6.55299834407813
S           0.16165251296885    6.10748402096358   -6.36962447768152
C           1.33235609966309    2.43741140954960   -5.27009617909958
O           1.00137024742757    1.40462310876727   -5.82038112183576
C           2.26916789984101    2.59799292719667   -4.14545402468192
C           2.31375491543988    3.98607442815398   -3.74301738346831
C           2.84226824446099    4.45065626890588   -2.56259348896828
N           3.05657657715133    5.82528944038020   -2.25875731911321
O           3.08282189424891    6.14266696449062   -1.08861724167940
O           3.19260369514524    6.59565879638297   -3.19141925441940
N           3.15716423922753    3.55696336392290   -1.46419889374721
O           2.32168872369873    2.72669387454975   -1.17802542357799
O           4.22416590769822    3.70137698006911   -0.91727182294535
C           3.12331638757006    1.61535484606005   -3.68553990138464
C           3.13903839737446    0.24658168972327   -3.94162783745127
S           1.93815942737441   -0.66263928362915   -4.86092977947481
C           2.74862193598007   -2.11831184871172   -4.50371523638413
C           3.91220780144877   -1.92067077905732   -3.72539082738080
C           4.12886266074861   -0.60498006480735   -3.40835241114763
C           4.53045742798706   -3.23701948900380   -3.48777194797636
O           5.53572600870662   -3.48629392996706   -2.86886123835545
C           3.61495194794495   -4.20825604223453   -4.20542070930901
C           2.58759652048734   -3.49103747326022   -4.79296425154661
C           3.79024239474430   -5.60232389192595   -4.25798715674258
C           4.80800946711188   -6.26324714872178   -3.62387449799989
C           5.02299083513955   -7.65048650540057   -3.64818996354418
S           6.37190637899904   -8.30359471969522   -2.72480824797107
C           5.98458370550183   -9.88787143685015   -3.22906387535148
C           4.86225386126460   -9.91058622325511   -4.07841468009714
C           4.32113205254957   -8.66371409951536   -4.31335991696353
C           4.63047161259284  -11.32178250135422   -4.45428126147398
O           3.77735461551447  -11.78594793977303   -5.16791338158557
C           5.72041396362215  -12.08535914585291   -3.73663276358536
C           6.49405445146632  -11.18679034731579   -3.02344759789588
C           5.82494429982911  -13.47968860663110   -3.86093224220833
C           6.76434921124759  -14.25114519661725   -3.22984780905521
C           6.85045650325579  -15.65223756576869   -3.38615205752277
C           7.78822348177087  -16.45424812067814   -2.73159611412005
O           7.84569642470178  -17.81088778949215   -2.92099190255143
C           6.93374481168471  -18.34003746354976   -3.78137086050190
C           5.97365104675151  -17.52546040245768   -4.44463313342622
C           5.15255154173499  -18.23441046543974   -5.25915087132415
S           5.54334537285979  -19.91196285915990   -5.22485612389581
C           6.82459899583722  -19.65377351540675   -4.10374047022035
O           5.92474490176054  -16.17670928003200   -4.25101180043395
C           8.75146467754945  -15.96385143233658   -1.81997536450854
C           9.66599659577930  -16.75596402804890   -1.18212276090619
C          10.59047131881387  -16.20014576552639   -0.27800790376717
C          11.54406545691510  -16.89824768196535    0.41312890198853
C          12.50159658722639  -16.35443449248528    1.35402277805805
C          12.63833255817598  -15.04201028997410    1.73110408231467
C          11.85835062501213  -13.96469742979450    1.26290197269337
N          11.26843815293636  -13.03551515901273    0.93214950182858
C          13.59748748425280  -14.57749185832130    2.65572510667613
N          14.35148181727349  -14.13159933133441    3.39789487165641
C          13.31601813414021  -17.46495691616249    1.84533491003116
C          12.88327871873377  -18.65400684391875    1.23227502618337
C          11.76633072034451  -18.36565595290313    0.31653730516851
O          11.16243575815595  -19.16444732959501   -0.36872901171736
C          13.48470582791486  -19.86579173438594    1.51567231085749
C          14.53072252460442  -19.88565185911797    2.42309620863878
C          14.97488384341812  -18.71773752867480    3.04244687802140
C          14.36283542071640  -17.50009178405740    2.75127734406640
C          16.09646181668104  -18.77745099562855    4.02976866721961
H           1.58659414316947    6.93434010641361   -4.57756418111761
H          -0.45413160572647    3.93627222591044   -7.32050413783143
H           3.94363919918960    1.93328520154819   -3.05119007945637
H           4.94549346627181   -0.23656516421752   -2.81328209647283
H           1.78421943804431   -3.91097038161962   -5.37080152824633
H           3.06043154644135   -6.15892041970470   -4.83259281996047
H           5.51306002259270   -5.68043441005549   -3.04764292720012
H           3.46458309824641   -8.47586318897830   -4.93411193685708
H           7.34652141987018  -11.41791650638836   -2.41192152378723
H           5.09618812418367  -13.95188147917889   -4.50601439052468
H           7.47793256638594  -13.77395898156125   -2.58108738983681
H           4.35200558004521  -17.86982674376263   -5.86797688952832
H           7.41828694290144  -20.46952529416429   -3.74801469908719
H           8.75975613072800  -14.90529258712610   -1.61447324036799
H           9.68721219974449  -17.81942509592486   -1.36428981959740
H          10.52549416599409  -15.13024326129281   -0.12677700711197
H          13.13795559662362  -20.76700986763281    1.03377327399280
H          15.01658138567841  -20.82097715422859    2.65996570757547
H          14.71483057803463  -16.60405879323694    3.23625177387155
H          16.90852118744862  -19.39584464188669    3.65254168883117
H          15.74628107434285  -19.22253960469298    4.96130646424941
H          16.47819261994464  -17.78387120093112    4.24829576761385
