94
 SCF done       -206.401667779631          0.000595373472
C           9.27985163425674    0.61878516544778   -3.58319706081451
C           8.49477556139395   -0.45082211235645   -3.89567896701818
C           8.59725135491563   -0.78125542510645   -5.28629639890806
C           9.45490655021004    0.00214065107002   -5.98500410322363
S          10.15395310973806    1.19059156988134   -4.95425935885271
C           7.63562169190435   -1.82697688201914   -5.59682165655775
O           7.42059672989466   -2.33081284847542   -6.69381503039906
C           6.95417937938295   -2.14192224187360   -4.32739466915102
C           7.49985674292081   -1.32918435712990   -3.27013788367949
C           7.16781889010152   -1.31108128999971   -1.92588412012897
N           7.85507612616306   -0.55704965658069   -0.94050754201436
O           7.22992762504285   -0.22333115522617    0.05235070587935
O           9.02219597613720   -0.25449614035015   -1.12879174864329
N           6.06032935924799   -2.03969026081198   -1.35902706218026
O           5.00727929250858   -2.04086297518148   -1.96149606051072
O           6.27111453790289   -2.62308953749631   -0.31862582004716
C           5.94726192264884   -3.11237105990313   -4.32519519564281
N           5.50287192620908   -3.58737662914183   -5.49066388760185
C           4.60478281069245   -4.57795948849818   -5.75177489064156
S           3.82140295920480   -4.48366833371632   -7.30522497841920
C           2.86171593589453   -5.86092619686494   -6.89215874695096
N           1.91995930091303   -6.31848116459305   -7.83533917055332
O           1.26154505614581   -7.29399877267613   -7.54141955216859
O           1.83510688523021   -5.68526666030503   -8.86851327404027
C           3.13020293457541   -6.35462948209247   -5.64942780850663
C           4.16065166466354   -5.65379272963515   -4.97665887121344
C           4.62237884237188   -6.13167858759118   -3.70422476887782
C           5.80132738630241   -5.98555749273362   -3.06104003997770
C           7.03540244920513   -5.38127952038367   -3.45943281345082
C           7.59130742388497   -5.33792362826017   -4.76275813054389
C           8.84181692926833   -4.68041252629569   -5.03288630249511
N           9.33095728358819   -4.65959035364298   -6.27106882787851
C           8.66107173560201   -5.24289769526918   -7.24506292753716
C           7.42607564572503   -5.89813724813061   -6.97904241221347
N           6.92612605316781   -5.93529172800613   -5.76397987948220
C           6.68384128361979   -6.50927072643180   -8.02189619589434
N           6.07532041675929   -6.98207692184941   -8.86872658972864
C           9.19352311047656   -5.20859550997923   -8.55661393488038
N           9.60489458130452   -5.19703172261130   -9.62553524745431
C           9.58589556003574   -3.99133502542060   -4.01183901382852
C           9.09342889931621   -4.17504578291998   -2.69490550434042
C           7.87535877583304   -4.88865182547265   -2.43285568472413
N           7.61329707837278   -4.95724247228731   -1.12683168393581
S           8.75066482051204   -4.19983561908215   -0.29947121012716
N           9.65271004718247   -3.75919484756247   -1.55877792674309
C          10.66997650579214   -3.20100758152117   -4.40615029776176
C          11.40943221895779   -2.28308845332299   -3.68140850916106
C          12.33483412292779   -1.38377364989589   -4.27363192361436
C          12.79645381412040   -0.41238072297455   -3.43092620182287
C          12.26407848808066   -0.52855436180931   -2.13345659661278
S          11.23560919781682   -1.92884855576834   -1.99169290311761
C          12.29736375572117    0.33232815046582   -1.04223290272963
C          12.78718792231813    1.65248935543920   -0.91855853740679
C          12.36527061226951    2.28052353092959    0.21837552261315
C          11.51343748640081    1.48458095646019    1.02607870526335
S          11.40485246111441   -0.13146259423800    0.36886680488838
C          10.70789811748524    1.87516502099777    2.07631792999809
C           9.70818486285831    1.01659339268944    2.54654777763855
C           8.70560875978467    1.33572028510608    3.42595756369123
C           7.58371747997642    0.49187979629922    3.77457178465321
C           7.33025487722152   -0.77727316062704    3.31474407578165
C           6.19906636168589   -1.53558867651526    3.68569241575201
N           5.31031026054819   -2.20262140138975    3.97268989985613
C           8.13051648512278   -1.52953413549164    2.43180942225148
N           8.71542899697886   -2.23732349118744    1.74006387525860
C           6.73745980958168    1.24975488809262    4.69202554654303
C           7.31757935024765    2.52649878549033    4.90381547833889
C           8.56372546431748    2.63469266600490    4.12152605209332
O           9.31071321723031    3.59001154849864    4.06549490786530
C           6.74850723709214    3.47397609157782    5.71935906673013
C           5.54783905321672    3.14921272911274    6.35924718477213
C           4.97569823295924    1.87260896328379    6.14311811011839
C           5.55149941404365    0.91406010705569    5.31794549043302
S           3.49369767952278    1.67890771627478    7.02825021811763
C           3.65911561891824    3.29327390590485    7.66632606444241
C           4.76731793501613    3.94550932578482    7.24070734398351
Br          2.35523802433326    3.96508221927468    8.83427514769363
H           9.43068010965109    1.12140744023276   -2.65055396855185
H           9.70300207401892   -0.03570636112410   -7.02662590041407
H           5.40307757449040   -3.41126874314994   -3.44407399270744
H           5.96792229307278   -3.17029886686665   -6.31603813393638
H           2.62619017153403   -7.21532044188045   -5.24732700143228
H           3.87860223768412   -6.73053853859380   -3.19364197399422
H           5.83841020930491   -6.33910778863514   -2.03736689911541
H          10.89601230166280   -3.25948563443803   -5.46461400805723
H          12.59699433337380   -1.45811321449689   -5.31456537131025
H          13.47527989601798    0.37067548115521   -3.71835705703467
H          13.39067470117143    2.11188608943165   -1.68116753394868
H          12.58895075936691    3.30167993285196    0.47141373213037
H          10.77868466452919    2.87988184825305    2.46723200396327
H           9.68709534751870    0.02660530096290    2.10901807291757
H           7.21424210054978    4.43709872060211    5.85805084270548
H           5.07480886589973   -0.04245960055603    5.18537603272726
H           5.02446425626856    4.94665897392487    7.53487488592565
