81
 SCF done       -163.158492774756          0.000523412428
C           1.68806449507801    6.02705635655273   -3.77575293924861
C           1.78137721154782    4.67966327807357   -3.60539905764632
C           3.07317117990820    4.17383910582802   -3.97450177403126
C           3.92782065634634    5.13353736529487   -4.40324729944814
S           3.16429343801283    6.68183756842888   -4.37657500572318
C           3.10369757800021    2.71869963688480   -3.78294680771322
O           4.03346333412181    1.96718671137857   -4.00772724302612
C           1.75176440836932    2.37083051303079   -3.31816821943791
C           0.98960923130870    3.57270153136164   -3.09311505281922
C          -0.19206668636338    3.64300986775086   -2.38822523289947
N          -1.03193530484015    4.78865911730084   -2.34904931634154
O          -1.75100777225571    4.92953244688184   -1.38125101807225
O          -0.97235849881161    5.56621138185445   -3.28584419123426
N          -0.63593755215474    2.55906995902284   -1.53982945261746
O          -1.80529281186454    2.25514093018991   -1.58668100642058
O           0.20172266210527    2.02906712106589   -0.83938305079985
C           1.22639453680504    1.08944637125922   -3.30468988500708
C           1.86459718388222   -0.13846863165216   -3.41915420356921
S           3.61006747619539   -0.40601337319217   -3.43688503017436
C           3.36496925535600   -2.09271193130947   -3.45850296832960
C           1.99267256673536   -2.44725183495905   -3.49088346623448
C           1.15935527611958   -1.36165272324342   -3.45985888689686
C           1.91583948439609   -3.91735704475320   -3.53925421726744
O           0.94627290732462   -4.63338948893994   -3.58634208877663
C           3.36026509205021   -4.36595868901029   -3.52083274426370
C           4.17414984040462   -3.24461874967981   -3.47990666523442
C           3.67205551816954   -5.73150263503041   -3.54086527631332
C           4.93907835303134   -6.24995046314434   -3.46162956555946
C           5.25302014198039   -7.61456347900227   -3.47862316121366
S           6.93745302252581   -8.11019646441878   -3.27730519634143
C           6.49784179651747   -9.75820697817490   -3.39728744055392
C           5.11123621757003   -9.91537729439142   -3.59399281633492
C           4.41629334708319   -8.72538885308743   -3.63639932769653
C           4.85094571893945  -11.36347046874461   -3.69622915698514
O           3.80544340833324  -11.93718282112225   -3.87843450944666
C           6.20986093626370  -12.00441924664637   -3.52379298897180
C           7.15247395271865  -11.00233364571530   -3.35145441323654
C           6.34393539198572  -13.39755957370575   -3.55710202055292
C           7.51618670070034  -14.08507007935589   -3.37207629968430
C           7.60373444618932  -15.49094664703421   -3.42779414879134
C           8.77196920414238  -16.21532600282296   -3.21749318230963
O           8.81085945388298  -17.58608330962573   -3.30255749611888
C           7.63163968402735  -18.20513592629772   -3.59766255324119
C           6.43207204345360  -17.46716653323139   -3.80337274540207
C           5.36914653843434  -18.26211413474111   -4.08366076199197
S           5.82179486722437  -19.92525288253976   -4.09932817235518
C           7.45864556465529  -19.54511415052655   -3.72506552680764
O           6.40304224141602  -16.11226307221887   -3.72098451511328
C          10.02888134062353  -15.63985327405444   -2.89096154889806
C          11.14915127890863  -16.38613507921488   -2.70259474672821
N          12.35101355437612  -15.85051245304115   -2.40502051547494
C          13.51264530017660  -16.54446814746106   -2.11103817965728
C          13.61512189284133  -17.88103279110339   -1.85085406626775
S          15.22214925397569  -18.34702354376809   -1.47898740415028
C          15.78601036699994  -16.73578529201220   -1.69158641175840
C          14.78352555609677  -15.87362184335267   -2.02666138430313
N          14.90449577018859  -14.51696820449335   -2.25471351530933
C          16.01982428378272  -13.76135552242657   -1.95930702254624
C          16.22230983039697  -12.53544568465342   -2.42438852926578
H           0.84760738724569    6.67486007944307   -3.62788837615690
H           4.94487313006347    5.03688505822764   -4.72622622012820
H           0.14706443157038    1.00429886596671   -3.23619689485555
H           0.08470648548929   -1.40357304449798   -3.45510323495039
H           5.24832076030150   -3.23727998566846   -3.46364342203246
H           2.82168424322157   -6.39632040405724   -3.60897349772801
H           5.77331089405894   -5.56824080290806   -3.36464371449362
H           3.35465901837606   -8.64251577578304   -3.77826911720860
H           8.20890715979155  -11.13512929446532   -3.20859334236753
H           5.43353737743427  -13.95204236080822   -3.73913798628263
H           8.41861444046788  -13.53220575745705   -3.17488891703026
H           4.35956604471909  -17.96790513960003   -4.27901955894940
H           8.19009513086493  -20.31885593481535   -3.62158800475310
H          10.08310079275075  -14.56982252354833   -2.78279326187105
H          11.11772999645058  -17.45844079599776   -2.80683880944331
H          12.39357190033480  -14.84527101143306   -2.29731263928067
H          12.83834761193598  -18.61694502921993   -1.82964575298239
H          16.82784797896914  -16.52769585436612   -1.56497087979000
H          14.26333016780950  -14.10108641247517   -2.91547748501700
H          16.70505316875702  -14.22964082932243   -1.27003650532650
H          15.53706932513381  -12.06503728289878   -3.10927963294833
H          17.08111638894354  -11.96525606244482   -2.12927132373767
