94
 SCF done       -179.825526453223          0.000649997241
C           5.78116161656077    6.21905150869181   -7.06082645343669
C           5.79065578594793    4.91023706109990   -6.68294040866273
C           5.68184389339623    4.02582540207421   -7.80179859288250
C           5.60932061884107    4.66355724597471   -8.99623883282210
S           5.66428797751083    6.37209764688980   -8.77236442112408
C           5.62694537492456    2.64737900815822   -7.31300658823611
O           5.58716936433497    1.63178371182782   -7.98220564287578
C           5.62370540728423    2.74564247172963   -5.84045524053098
C           5.79406679605302    4.12635125016971   -5.44903355003236
C           6.02063787148758    4.71543080168024   -4.22610535463957
N           6.54269923818430    6.07646220465605   -4.18523369126739
O           5.93803449617166    6.88012380201603   -3.51872973101684
O           7.53602342113119    6.30222538009598   -4.83780133056967
N           5.83891250949290    4.18793669759886   -2.92169132022299
O           6.52467113818526    4.65991526396707   -2.03694388645868
O           5.01159638776542    3.30677226095004   -2.75653865268493
C           5.47004911439308    1.65380510653830   -5.00485469571781
C           5.44445234191929    0.28990771324124   -5.27620630812903
S           5.70908716654592   -0.50918798554901   -6.83158054646768
C           5.56807610866732   -2.03547614855973   -6.08763944080027
C           5.30469281686373   -1.94829340966349   -4.70106449526872
C           5.23895031519589   -0.65667962021952   -4.24865803232889
C           5.19404207436822   -3.31912882766621   -4.17195107738745
O           4.97989764561424   -3.66416609172547   -3.03561318984305
C           5.41679561797007   -4.20077153210277   -5.38421674748537
C           5.62539676371844   -3.38939003050488   -6.48492601623493
C           5.42345530992905   -5.60740460183230   -5.37752657253391
C           5.22202373470247   -6.36396832102099   -4.25541197664906
C           5.24581465942605   -7.76817571649101   -4.20292470772555
S           4.97835176215958   -8.55394122245433   -2.64889239041102
C           5.17227615950890  -10.09065948829204   -3.36129058678130
C           5.42796845616490  -10.00374929549641   -4.73897852671955
C           5.46896310386097   -8.70697627729663   -5.21439822001656
C           5.58161475223035  -11.38587064644106   -5.23863292618570
O           5.80272683228037  -11.76978559137861   -6.36035342909308
C           5.39599759543305  -12.25318329364027   -4.01337027525134
C           5.15300150876642  -11.44206014766154   -2.93010967734472
C           5.49255655084088  -13.66157442971547   -4.11568215490563
C           5.35546463663288  -14.52748495773939   -3.08111205194263
C           5.45824884214846  -15.95662805971821   -3.14459484391752
C           5.26569417433976  -16.70066626837644   -1.97639707854150
C           5.35126879498560  -18.07978801593703   -1.97252666811963
N           5.00476275682233  -18.73700132344312   -0.73851632556983
O           5.21361358377778  -18.13244149079783    0.29141556348864
O           4.48385913920989  -19.83128955418352   -0.80259951279862
C           5.66249450822709  -18.80321581127610   -3.14157140203511
C           5.84817324794330  -18.04422298756371   -4.31048797987498
C           5.74484930826759  -16.67605413761814   -4.31913546076594
C           5.87855141623859  -20.22463057601007   -3.17149138579391
S           6.78358158174181  -21.02476316708660   -1.93378698063401
C           6.67923368543869  -22.56238182232859   -2.71114435857806
C           5.96502663494295  -22.46292850264714   -3.90599413396355
C           5.50855346820741  -21.13137788742718   -4.16698830193597
C           4.70223123809474  -20.88051656557518   -5.29569276095909
C           4.42720222875988  -21.88756979590795   -6.17870203383023
S           3.41515727178017  -21.70330047120962   -7.60497724623841
C           3.28061105516349  -19.89599836377510   -7.84790220016474
C           4.58929666091554  -19.28171502591140   -8.30606675651688
C           4.95799140585471  -23.19902097098261   -5.96632677866966
S           4.58642573282329  -24.38325733603665   -7.21235090934885
C           5.03544529234609  -25.98288746517907   -6.43473474425072
C           4.53637471012946  -27.10964836984359   -7.31881717044015
C           5.70586781617073  -23.47406236004604   -4.85557588085543
C           7.29425843602713  -23.67846628612178   -2.04820585499093
C           6.96702274817075  -24.96423141192977   -2.17144045055899
H           5.82876795950462    7.11736406906418   -6.47869879143426
H           5.52105337888027    4.24735558924351   -9.97953865555566
H           5.30989826580552    1.87092416728647   -3.95482605446632
H           5.05554861723479   -0.36188691892843   -3.23072520369705
H           5.80985784519830   -3.73242323341194   -7.48690259345267
H           5.60838507915196   -6.09184799434218   -6.32822182284122
H           5.03473923876635   -5.85263436676902   -3.32150716632633
H           5.65319271740222   -8.43758625906497   -6.23797046992963
H           4.97812558928715  -11.75515243317654   -1.91750310828558
H           5.69633647372626  -14.02028130416876   -5.11580883060721
H           5.15136017369958  -14.12583497901699   -2.09755473642518
H           5.02155026382886  -16.20335412697942   -1.04862541393563
H           6.13116659259365  -18.56041452494455   -5.21457439257447
H           5.91114430392881  -16.14578081164352   -5.24328015561037
H           4.28658348928023  -19.89522643496436   -5.42279180343264
H           2.90307026249322  -19.44443707784554   -6.93142900306670
H           2.51731982340221  -19.80143320781103   -8.61987300667448
H           4.46540162881338  -18.21048155248905   -8.45191097322912
H           4.90298602203077  -19.72814284153799   -9.24644058140175
H           5.37568360641064  -19.44601624915390   -7.57262046591495
H           4.55952756042371  -26.01408719880328   -5.45459318346165
H           6.11997298781418  -26.02316227061690   -6.33087717649507
H           3.45767047564533  -27.04853429737745   -7.43966017896763
H           4.78515917494842  -28.06892490187266   -6.86997891076231
H           4.99673041865006  -27.05373271663828   -8.30219501470092
H           6.13082376583927  -24.44952381819583   -4.70287006121531
H           8.06935784975142  -23.40205381203459   -1.34317285096518
H           6.15725185394449  -25.30325868559154   -2.79189747718241
H           7.49124191862341  -25.72089468304393   -1.61446251899726
