88
 SCF done       -166.412208618413          0.000868651808
C           7.48103038696668   -0.30163263440064    0.30101528801693
C           7.77911438153788    0.24685882203952    1.51203326762669
S           7.76745167812701   -0.88894292503177    2.81613266866472
C           7.34366820392726   -2.14116208089979    1.72679875472401
C           7.22688561574483   -1.67899966751695    0.41905776792610
C           6.90429305163016   -2.80485084015166   -0.45632651250061
O           6.76157233186268   -2.82644073060995   -1.65562391617011
C           6.74637685407395   -3.97887473180695    0.47600132097325
C           7.18727675129538   -3.56608585819881    1.80382363819765
C           7.58766920908126   -4.33626436040056    2.86275368753972
C           7.95605319218835   -3.73304462948770    4.08380914456648
N           8.23236203432283   -3.24353565012949    5.08477093811471
C           7.82332436509545   -5.72223001890175    2.82611007737946
N           8.21376142929390   -6.80399663421815    2.86368886738684
C           6.13226973238380   -5.08577943871199    0.02293300714088
C           5.65275438503243   -6.25021180416010    0.73963073020722
N           5.53264056165750   -6.23185158394672    2.06817186573405
C           5.02643416810399   -7.32139612537750    2.62575658603953
C           4.70170087306447   -8.45514172481132    1.90218463910568
C           4.92800779683954   -8.41055996615789    0.51850845065083
N           5.33971083801906   -7.27323567941244   -0.03849744500257
C           4.71353352911567   -9.54460696343721   -0.36036723906281
C           5.32332603091843   -9.66948875392635   -1.55212554877819
C           6.36219328469608   -8.76969001931307   -1.99876843476852
C           6.35309362907404   -8.20319747864336   -3.28430496000092
C           7.21589983156656   -7.09955959472614   -3.63207933161345
N           7.15477063275202   -6.56248866061961   -4.84750784014282
C           6.29716497145904   -7.04633093493568   -5.72715865413323
C           5.42506328638813   -8.12186743408421   -5.37558385966244
N           5.46413806140440   -8.66788018053341   -4.18477496048479
C           4.50794551264278   -8.62437122224297   -6.33372730338520
N           3.77864658096492   -9.00161961698720   -7.13259514145190
C           6.25945909104394   -6.49151003479748   -7.02636618341845
N           6.20121922208066   -6.05839775946329   -8.08684997044783
C           8.11265735603972   -6.51184538810866   -2.67559323242757
C           8.27403685839341   -7.25970455344631   -1.47953315373019
C           7.41791696035936   -8.36995175079456   -1.15538824878593
N           7.75833112674058   -8.93715999431268    0.00392299723665
S           9.01558518384431   -8.16106289249479    0.62699032374510
N           9.19211297367937   -7.06238297216607   -0.53925102345407
C           8.67354197004371   -5.26650954739053   -2.96002051500610
C           9.34248882725041   -4.37623124057874   -2.13618260507212
C           9.64973795370260   -3.05183329860204   -2.51683461932125
C          10.13388310525325   -2.26529313580515   -1.50645680084317
C          10.25384112424670   -2.95152820879469   -0.28988364971327
S           9.77916296708161   -4.62782431618311   -0.46696184409168
C          10.64189460678898   -2.48132710839864    0.96072260994088
C          10.98108913473991   -1.18025936370872    1.36926112089562
C          11.25403549614112   -1.07912748106288    2.70612560945482
C          11.14985191203256   -2.29272869429224    3.42193159079296
S          10.70309384652537   -3.57960817420741    2.31276945409250
C          11.35191948500957   -2.45251241373883    4.77441165271507
C          11.24098075305688   -3.61790462395578    5.54900991922018
C          11.46393273014207   -3.66480531745455    6.93581943459651
C          11.24209200129192   -4.98009092726848    7.39152463072755
C          11.33534331688469   -5.55390039181489    8.64528548486915
C          11.04486866762969   -6.91828805489494    8.75927997201255
C          11.05642321502753   -7.77538275842534    9.85536301448910
C          10.67702437788522   -9.08215165384355    9.42872078275782
C          10.42545380060849   -9.03321137665657    8.06529115501379
C          10.64601800405847   -7.70343337891676    7.60111080026265
C          10.55150362403585   -7.14266344314067    6.35451573157903
C          10.85918397523956   -5.77150421767800    6.23354755315226
C          10.87136746416016   -4.94309237737360    5.13034513134835
C          10.56885233237176  -10.26617309495533   10.24677911873742
C          10.84197281901040  -10.33599048859084   11.54692770434270
H           7.44569888982137    0.24501826441109   -0.62300658809766
H           8.01402340553194    1.27084350264939    1.72746179107548
H           5.92824591926000   -5.11710050942736   -1.04199836915958
H           4.90348338323537   -7.27898612202473    3.70052985615536
H           4.32052434007019   -9.34171071283289    2.38112381873190
H           4.00418297161348  -10.28720520948640   -0.02504650599542
H           5.02127366904738  -10.44568316028463   -2.24190601562522
H           8.45568788154188   -4.89700366571271   -3.95499854516103
H           9.46382374186353   -2.70419962651698   -3.51716146322127
H          10.39185293018464   -1.22688890671451   -1.61618711966604
H          11.00510617753971   -0.35569022647500    0.67950990716062
H          11.52197488896782   -0.16157568264486    3.19986623177388
H          11.62304183551389   -1.55271512900250    5.31371789543866
H          11.75137737703817   -2.83025841983869    7.54845038354153
H          11.62509119032160   -4.97551454100682    9.51116798621380
H          11.30923090638294   -7.49797808918117   10.86210350229054
H          10.11848982049129   -9.85845880114942    7.44908100642421
H          10.25145982082139   -7.71180555011001    5.48632776513676
H          10.64081666754164   -5.25072139355779    4.12809080413680
H          10.23827588441244  -11.15345545959991    9.72119323572720
H          11.17629657428263   -9.48242850657710   12.11129714289700
H          10.74105225251542  -11.25710249850952   12.09403978274014
