121
 SCF done       -200.893834824907          0.000890235151
C          -1.22171404932232   -6.85474165035080   -7.07382162008431
C          -0.46213327399429   -6.07070287806580   -7.89052220200805
S           1.22678791360184   -6.11398821406715   -7.52986706290578
C           0.92422253271710   -7.19592865877920   -6.23604186593189
C          -0.42491060087163   -7.50687026036502   -6.11737827266571
C          -0.60153501653960   -8.45925558184458   -5.01176172988647
O          -1.61261195153569   -9.00269386331394   -4.63262675835266
C           0.76072208396868   -8.58393176969444   -4.40240535513594
C           1.71740526145420   -7.92352034800905   -5.28320291543138
C           3.07288190695808   -8.11157741912956   -5.36504709262132
C           3.83905521993611   -7.42412406185766   -6.32840508325927
N           4.46411859137062   -6.85105774121940   -7.10176231509467
C           3.80338879193649   -9.04532263923517   -4.60445347218969
N           4.44212403210191   -9.83961126755963   -4.07622064420988
C           0.91828763002628   -9.13907536902039   -3.17997880123230
C           2.05371866910223   -9.02293306666134   -2.29945421550229
C           2.41214342644118  -10.10663511956611   -1.48488416042727
C           3.51218078604057  -10.00389189717158   -0.66888629991041
C           4.19871897295890   -8.78020382785655   -0.56689645932475
C           3.81740133293047   -7.68331462788407   -1.32872576776394
C           2.76666833302179   -7.82001138208206   -2.20882768109602
C           5.24461543056881   -8.91730170800790    0.41628515143971
C           5.22941016665624  -10.23378224636008    0.91205707771321
C           4.11965278987142  -11.03604125122902    0.25989490109762
C           4.76968473508863  -12.20316832716329   -0.51207556636593
C           3.82460817560048  -13.07829786434566   -1.32454239779151
C           3.03079818615892  -11.47047077099846    1.26373813259806
C           3.46144495344657  -12.46324793106201    2.33556029424967
C           6.18412959591008  -10.63451442637830    1.81428104130808
C           7.12557037294162   -9.71153464092932    2.30503673314849
C           7.09853809880628   -8.39370728568991    1.82075210023975
C           6.18136144646383   -7.99868001664570    0.87298566646105
C           8.08545890871434  -10.15409602115906    3.27889106770446
C           8.87137139869976   -9.35296343114304    4.04204454080853
C           9.79837939258222   -9.82249648117244    4.99331622262449
C          10.52258960731351   -8.99973426455967    5.81398081539380
C          11.47553850681497   -9.37508863388983    6.79581450085306
C          12.01499278841124   -8.33376106711577    7.48391060694993
C          11.51867967038615   -7.06686395305956    7.09359341528078
S          10.35451360191342   -7.24790604135819    5.79699240158319
C          11.82244076154416   -5.83128114408014    7.61866673170072
C          12.71453975720893   -5.52208512719783    8.67520494234211
C          12.75506102895460   -4.20536452169015    8.99651063181839
C          11.89721101088312   -3.37360650616105    8.21523015244021
S          11.04377000202483   -4.37267467086731    7.03709741242531
C          11.80952149144784   -2.02094019584015    8.32358419647360
C          10.92597986472874   -1.14658191634952    7.58659063521482
C          11.23865989960607    0.16983938166158    7.19031103453676
N          12.40270813407958    0.90901673656957    7.30607781982678
C          13.64495515065104    0.41641012288117    7.84444145316989
C          13.77040734186517    0.63427746943260    9.35358406008076
C          12.22256597041471    2.13154008378748    6.70458459144287
C          10.91518803611458    2.18507739143068    6.16146556574742
C          10.28472574912409    0.93972248760402    6.48457772844549
C           9.02328556613085    0.45071359743195    6.18067719858254
C           8.71099979034035   -0.83250451193446    6.58333596409221
C           9.64271703909109   -1.60180648842940    7.25842461814841
C          10.47458087154855    3.27407980921678    5.42863945346335
C          11.35471885917699    4.31987943350125    5.21328715030400
C          12.63453499709871    4.27740550188730    5.73511028641641
C          13.10833230447207    3.21124083559403    6.51392243992187
C          14.40300691452056    3.33118649942462    7.13553877570397
C          15.45694445968538    3.98152986345883    6.58128626631237
C          16.72945692351973    4.22281532236320    7.15839737898625
C          17.20013271619664    4.14586160562782    8.44210312960045
C          18.58214197995218    4.48042655903117    8.78304201610696
C          19.65554650183895    4.71323186710889    7.95969194018671
C          20.91829061776006    5.02435433465738    8.50724673764545
N          21.94705463380923    5.28456497693803    8.94483401702014
C          19.67274678874438    4.65947261408085    6.55329938241365
N          19.77988626769437    4.62090554878623    5.40982322277637
C          18.65482696366323    4.49822531722244   10.21768939005047
C          17.43696703622343    4.15628770649748   10.78226227228010
C          17.46186877340780    4.15469402535215   12.18709612678152
C          18.69762552259797    4.49566155897666   12.65143019090897
S          19.84928817641225    4.81921072280075   11.40474454921592
C          16.46927812809237    3.88171719500964    9.71255345081938
O          15.32035239675771    3.51757850316500    9.87041904204939
H          -2.28761291160714   -6.96122155921483   -7.15374171697403
H          -0.79527758953335   -5.46051824823524   -8.70728006790707
H           0.06167657819269   -9.68851713734846   -2.80193067226375
H           1.83260961828903  -11.01485249738233   -1.54571376837925
H           4.33578341091940   -6.74098207868374   -1.23603974345905
H           2.44859341405122   -6.97396249591081   -2.80188213943897
H           5.30599459075946  -12.82451957592459    0.20733392883418
H           5.51125354920789  -11.77211916032149   -1.18904684236223
H           3.02085148756245  -13.47829739229014   -0.71143156572009
H           4.38102245645520  -13.91673458398128   -1.73853931404756
H           3.40002653428428  -12.51992271215358   -2.15363536355064
H           2.20151641538621  -11.89813199000079    0.69799340692660
H           2.65694611727619  -10.56625831235053    1.75251464654181
H           3.87332664309327  -13.36772737133746    1.89604991608957
H           2.59635914840849  -12.74305142442157    2.93374838383786
H           4.19888876929677  -12.02320444180148    3.00058885566146
H           6.22939233474575  -11.65433583605661    2.16644384539963
H           7.82985609233784   -7.68347438212624    2.17340205880897
H           6.19365676605973   -6.99037620559162    0.48680295449844
H           8.15059240013762  -11.22555742000227    3.42714565597939
H           8.78976977509022   -8.27749231679037    3.95603902200775
H           9.94707603783782  -10.88988627642575    5.09122898477575
H          11.72632229455457  -10.40848903805700    6.96032871975935
H          12.74838784726272   -8.43781436996617    8.26369301316898
H          13.29721097694674   -6.28328746334536    9.16280987499107
H          13.37164979583369   -3.78766277356063    9.77345344135388
H          12.45042005280902   -1.57976658325431    9.07137746110783
H          14.46595385628888    0.91915821444884    7.32412943370343
H          13.70671201733256   -0.65169866848624    7.61216761073695
H          14.63169670751051    0.08807083307033    9.73106825974500
H          12.87808532823446    0.28756709387375    9.87005566106071
H          13.90097730442303    1.68391173211353    9.60044251524682
H           8.31320880228454    1.06107071942361    5.64509632418870
H           7.73551575996179   -1.24541334814638    6.37697476381817
H           9.35295472508338   -2.58712060557502    7.58706548560568
H           9.47212415730320    3.29717507288160    5.03059868059800
H          11.04223776505975    5.18166589395399    4.64350319569517
H          13.28470098303606    5.12602471980791    5.58754379936801
H          14.51195594999946    2.92983949628775    8.12793363161638
H          15.36891226221724    4.31925610042096    5.55570305566351
H          17.45766402419993    4.57227511015667    6.43507847248754
H          16.62122740900029    3.91788445265344   12.81261068230231
H          19.01324349655945    4.57697284704036   13.67327656699727
