76
 SCF done       -143.336039233618          0.000255631628
C           4.16040989932239    1.91541323681821   -0.74985572168751
C           3.10657702482772    2.30258678204182   -1.45245477963332
C           2.22469332919478    1.38907549596357   -2.18983967774678
C           2.78867726795486    0.44244391164800   -3.05461503459971
O           4.16124324637090    0.32852804522060   -3.16074447676171
C           4.77186566994283    1.29977554650606   -3.99617707352478
C           6.27746989254551    1.19279104927225   -3.82660194489433
C           1.97405650322958   -0.40201642650625   -3.80799044907579
C           2.56667526310449   -1.42032506385439   -4.74027565061225
C           2.37156936458828   -1.01945405132170   -6.20373785332220
C           0.59526959680462   -0.28298904496991   -3.70608935404701
C           0.00447580431411    0.66284959703459   -2.88157446502311
O          -1.32782679296146    0.82896395234467   -2.75561772866092
C          -2.21783108516304    0.08481388415754   -3.56600791796728
C          -3.62023442793962    0.60760880555248   -3.29660152583051
C           0.82896609809158    1.50003366538742   -2.09254573963856
C           0.21544409186666    2.44300996883885   -1.17790733770267
C           0.67135605773308    3.03432467082521   -0.01712657788862
C          -0.36496514526568    3.87175196466623    0.45416449830625
C          -0.24407944938115    4.84549231679606    1.52755701953766
O          -0.95753001626787    5.80599346464066    1.67562450738010
C          -1.41651721014836    3.70735370276054   -0.44959017028833
C          -2.71684785247737    4.26799936443652   -0.56429070075577
S          -3.41942043529392    4.32165417263234   -2.14084660368222
C          -4.81701127326439    5.18085777197103   -1.54108270717779
C          -5.86641534901060    5.68941364165147   -2.34964056684939
S          -6.92807203901989    6.87260787208761   -1.64402891297238
C          -7.84672932364329    7.05310007290597   -3.12352838797398
C          -8.92800024593207    7.96180476719373   -3.24470878478643
C          -9.35215573805440    8.78984410494803   -2.25691985721113
C         -10.40464773850050    9.71446247456501   -2.37224317165641
C         -10.82961761066484   10.59609147604403   -1.33652001968673
N         -10.38081927959595   10.61201169196190   -0.14763406008107
C         -10.54762260712828   11.55309117846535    0.81566097363940
O         -10.73509704733128   11.32482908188131    1.97736322053921
O         -11.88456128402218   11.40029498682724   -1.75985218760028
C         -12.25898218488656   11.15578992930730   -2.99206980452563
S         -11.37953053753134    9.95986060242376   -3.77306852742682
C          -7.35139775388259    6.22369764648739   -4.09547681701550
C          -6.24343932571510    5.45805657825711   -3.67783539028931
N          -5.65727298628890    4.53982728419561   -4.56475037557174
O          -4.68948395669909    3.88654221715109   -4.19006391181975
O          -6.14776536363507    4.42669328239722   -5.67154317608769
C          -4.72793609196729    5.36510919153472   -0.17343884856206
C          -3.56908831079082    4.82207618143245    0.38641123229881
N          -3.42235149856192    4.71161015634550    1.80409091561387
O          -2.73414099385283    3.80591469340948    2.22688248931021
O          -4.06018038162539    5.47991594356150    2.48568444895721
O          -1.04122848584757    2.86220419219363   -1.42249849270716
H           4.79595325979542    2.62549843923216   -0.24724070753721
H           4.41934586744832    0.87558794965092   -0.65113377315560
H           2.84981311867955    3.35320094892390   -1.52687447236069
H           4.42608318119142    2.30509079259071   -3.71863119165582
H           4.49025184725690    1.11789304802037   -5.04425044450074
H           6.54816210448316    1.40916845630973   -2.79695681606947
H           6.77548358275501    1.89900308582831   -4.48488584589338
H           6.60639993247969    0.18563494528733   -4.06709152197816
H           2.08658510283043   -2.38636871591912   -4.56835048807484
H           3.63038718682279   -1.52322335935794   -4.52510558846754
H           1.31409373099323   -0.93654995860268   -6.44356325272930
H           2.81756299410858   -1.76345557293518   -6.85941850788505
H           2.84009587537693   -0.05819645935383   -6.40361415412101
H          -0.01820973250320   -0.95131518499544   -4.28919774334914
H          -2.15075781950583   -0.98334488864529   -3.31472878935447
H          -1.96315383147583    0.21702533378468   -4.62563912692641
H          -3.84772527721891    0.52125124698974   -2.23756451802248
H          -4.34286250552781    0.02895617777693   -3.86483287300714
H          -3.69331426126758    1.65274989895487   -3.58592337529976
H           1.61828414273585    2.88310992092129    0.45665632736728
H           0.62583557970554    4.66752479126105    2.18496003416499
H          -9.41667520954185    7.98056426794666   -4.21092869381517
H          -8.87233205101052    8.78067631120720   -1.28736039468150
H         -10.39900138850661   12.59559979691075    0.44206733421185
H         -13.07927632787530   11.70125147146547   -3.41456238848472
H          -7.75204406811629    6.15000145746258   -5.09005010631136
H          -5.48570432166271    5.84413976925306    0.42174655573173
