80
 SCF done       -139.229720080123          0.000371745095
C          -4.07081971840138   -0.58633273735299   -4.20116339368300
C          -4.71712366466153   -1.64004430562725   -3.55389963490405
C          -4.81830190932556   -2.89696312980957   -4.20413793807468
C          -4.28849784851380   -3.09845890062104   -5.46561041621166
C          -3.65382587705714   -2.03837667967724   -6.08492370270127
C          -3.54810273157971   -0.79726626053073   -5.45747618875239
S          -5.67038360685362   -4.02107441588969   -3.18857287594407
C          -5.82649777218387   -2.71969649207580   -1.97981791016983
N          -5.28561462233671   -1.59261211086849   -2.33110417792524
C          -6.49628577217258   -2.90344912313531   -0.76382899612002
C          -6.61153937816126   -1.85472661775112    0.12306055288145
C          -7.28233490238339   -1.83320930210576    1.36326180559213
C          -7.24406760248621   -0.61571017218409    1.98915767158823
C          -6.53136187495887    0.35707399662150    1.27133393445944
S          -5.90459620985555   -0.29808735767855   -0.22665957476247
C          -6.34097416767293    1.69856292556929    1.61383439252395
C          -6.89298188976882    2.41548542417319    2.67868784422686
C          -6.55919221024358    3.75333717451261    2.67539256979319
C          -5.71954633104791    4.12565107186970    1.62571652900725
S          -5.35103911336138    2.74121552406012    0.62641507271847
C          -5.24915468515415    5.41353281953379    1.32689357940146
C          -4.35456137973196    5.69202625580824    0.33368377128056
C          -3.96671386537922    6.97904371967871   -0.07107845323371
C          -3.02746070833373    7.29989790573961   -1.04618735334513
C          -2.92660502193687    8.65427270476561   -1.30498669521537
C          -3.79417950709966    9.43063054598400   -0.54390070604373
S          -4.71451009581099    8.43091678304244    0.54725806681165
C          -4.03445258026327   10.81338157836381   -0.65454547761159
C          -3.46912447337655   11.70523113548157   -1.56002150060439
C          -4.02682270702228   12.96941257068932   -1.51039941418131
C          -5.03234453638534   13.10641730781794   -0.55866797216662
S          -5.25226192118424   11.60577116134754    0.30735699151075
C          -5.84784334325522   14.22942300442901   -0.34770339034295
C          -6.78869623092206   14.34584816052279    0.63510784352683
C          -7.69963759073504   15.40850634939824    0.73272910026921
C          -8.62291015962248   15.64520154288985    1.75062625262525
C          -9.43413390421559   16.73849400436626    1.53051662789082
C          -9.18477149939094   17.38246523257062    0.31588751505769
S          -7.86906215754242   16.60639019827451   -0.52717928595927
C          -9.86971542787752   18.45843404160098   -0.25452402545921
C         -10.90915987629072   19.21823158760125    0.30168190612004
C         -11.40440444465354   20.17380286954007   -0.54364598349332
C         -10.78657614117304   20.20044879718098   -1.81479001240490
S          -9.52383116015044   18.98918494683822   -1.88268903350198
C         -11.13697317332896   21.02776460805787   -2.85634679962677
C         -10.60815749500231   21.05496958071927   -4.15523706251799
N         -11.04707030901464   21.85263806031154   -5.08125921683097
C         -10.41276850438116   21.68891445638226   -6.25915619218878
C         -10.67482888893869   22.39404016686829   -7.43657655159367
C          -9.94159559571164   22.10525985101554   -8.56462560539357
C          -8.94658069812207   21.12666673881584   -8.54956669213122
C          -8.66611425738150   20.41429930758899   -7.39983093928517
C          -9.39859510263624   20.69544569295045   -6.26028251840254
S          -9.28411807144616   19.97154167154601   -4.68865094867829
H          -3.99867703302978    0.36720263319744   -3.70329363083951
H          -4.37286871308054   -4.05942108340204   -5.94898306655976
H          -3.23496645010193   -2.17430417530700   -7.07058715919922
H          -3.04779105398513    0.01100987008820   -5.96983082465101
H          -6.93408979048111   -3.86199369207378   -0.53625278637327
H          -7.77778628957745   -2.70529266199132    1.75200054745003
H          -7.70487030216728   -0.41310214508027    2.93975591635515
H          -7.53324544723666    1.95751110665791    3.41075336849093
H          -6.90470418513060    4.46242612178067    3.40707602960982
H          -5.64441909424665    6.22602564287319    1.92385328138595
H          -3.91570693368282    4.86839651070955   -0.21575304603560
H          -2.44882364118476    6.54621879418288   -1.55022596142528
H          -2.25960400670397    9.07689501668938   -2.03425288403352
H          -2.68963307179686   11.42092295995408   -2.24329900782512
H          -3.73141237558932   13.78290894014246   -2.14908531894206
H          -5.72492969359480   15.04511477024576   -1.04961169306678
H          -6.86658470932379   13.56886455081916    1.38543173091371
H          -8.68188754859599   15.01742591885178    2.62235907603569
H         -10.20431584332388   17.06205018404263    2.20700549572742
H         -11.26818445221992   19.05278948843713    1.30164865590905
H         -12.20239116169728   20.85074886746450   -0.29599379971863
H         -11.93551557706455   21.73592717745071   -2.68102277652666
H         -11.44661530226894   23.14688430492782   -7.43605250409026
H         -10.13705391513995   22.64288435115312   -9.48058889235208
H          -8.38779997449544   20.92219200848254   -9.45046364824221
H          -7.89848071790472   19.65618067043053   -7.38421248964587
