81
 SCF done       -138.074420419269          0.004031152255
C          -0.04177413619237   -8.12695237650366   -1.63557813747762
O          -1.18619113476896   -7.76058701147380   -1.60257265409846
C           0.56556458514453   -9.39241572137542   -1.16610236601177
C           1.93955635209046   -9.34380420466720   -1.41729476798609
C           2.76458988133068  -10.39915027979435   -1.08773073482669
C           2.18034124943729  -11.51002197501576   -0.48774210560533
C           0.81852911659978  -11.55511848806686   -0.23177126874423
C          -0.01409032549564  -10.49325416741809   -0.57142191933456
C           2.25923758929510   -8.03693124183251   -2.03264793980741
O           3.31870461739930   -7.56835039482804   -2.34528012450143
N           1.01978393633978   -7.38765539772329   -2.16852676720301
C           0.87702317684562   -6.10317154779040   -2.69056817511571
S           0.06465451355256   -4.89406764744848   -1.75690986597272
C           0.45623506932710   -3.70598716098888   -2.94336775480856
C           1.17398614083502   -4.19951525725998   -3.98085689351012
C           1.63323368337486   -3.38245893559111   -5.14234805335990
C           1.41521293351000   -5.60982181494054   -3.86055203656095
C           2.10150567016284   -6.37057758904293   -4.86744125499197
C           1.93264760655703   -7.69112229020089   -5.11367329841159
C           2.61831869310640   -8.44171957638531   -6.10591327452808
C           3.67137819544103   -8.00992500498988   -6.85671379077309
C           4.31806443879651   -8.80787675613798   -7.81176231179045
C           5.41245177389485   -8.40508152946156   -8.53426092935359
C           6.15386329098489   -9.16283736599959   -9.47183965490525
C           7.24189257943072   -8.52071197447812   -9.98193766501267
C           7.43632472121267   -7.22142609862689   -9.46111376212029
S           6.14180058566009   -6.81023945213991   -8.36133064664309
C           8.50866251580357   -6.37786161675100   -9.66834932048518
C           9.67237384970790   -6.60853708408556  -10.43197694714729
C          10.62507487073621   -5.64870371297874  -10.28175834561889
C          10.28518316278665   -4.61815670569369   -9.36443975698737
S           8.63942791695374   -4.84824055464748   -8.81740912656970
C          11.14458979641796   -3.61403677537973   -8.98498968435066
C          11.05227994050911   -2.61300658103637   -7.99927506467251
S          12.02608956729558   -1.18527692548590   -8.31420717687954
C          11.36778025673006   -0.37617887422266   -6.94729983950403
C          10.47936369941149   -1.13259412847837   -6.25959992816024
C           9.79432889475648   -0.66038151308115   -5.02000133284684
C          10.31506721222677   -2.44687526295918   -6.81413704574460
C           9.56453095870172   -3.43791035346337   -6.12416139467580
C           9.71328081260831   -4.78580441113241   -6.24461695163924
C           8.81390737525367   -5.71473025621110   -5.67431885307623
C           8.80626443567989   -7.03745835691575   -6.00839625195050
C           7.78076302054614   -7.91085087677668   -5.60364619528059
C           7.55512857988415   -9.17183883180719   -6.09719460992237
C           8.35343528091980   -9.81401002224559   -7.15034892070420
O           9.25654329206302   -9.30779047408532   -7.77982344464525
O           7.93662232577875  -11.07781515949287   -7.36363893625619
C           8.62796380347153  -11.79566705384463   -8.37047864784596
C           6.45054131891549   -9.90304961063148   -5.62473041833787
N           5.53099190039404  -10.47724872063772   -5.24459292041273
H           3.82182192825315  -10.35851475622760   -1.29690435569862
H           2.79938513414655  -12.35180253838054   -0.21658424416841
H           0.39596164945815  -12.42960028433724    0.23946363262416
H          -1.07507445133241  -10.52056960778722   -0.37846182854895
H           0.12000446134576   -2.69794021511606   -2.79932323148300
H           1.31903669218589   -2.34881233969869   -5.02302050084359
H           1.21547103592701   -3.77270125118072   -6.06945127274293
H           2.71942185047000   -3.41084659208437   -5.22086934434475
H           2.76922326797363   -5.80166203965337   -5.49679174184369
H           1.19286876131804   -8.23924747170284   -4.54439343836910
H           2.28195409104936   -9.45950396808441   -6.25356079544587
H           4.06647841353588   -7.01375574356106   -6.71479888185909
H           3.95535957095280   -9.81384340340203   -7.97298573436163
H           5.86302447419551  -10.16857512250829   -9.72321709101310
H           7.92636746492668   -8.94863604804534  -10.69254517065609
H           9.78832462808907   -7.48628859914993  -11.04104986236151
H          11.58912200092575   -5.66991846833069  -10.75848155362168
H          12.03726260404353   -3.53987620673296   -9.59822128642477
H          11.68728282154618    0.62328091777241   -6.72533936229182
H          10.07136019398796    0.36965330954478   -4.80966138972010
H          10.07677064886147   -1.27775612824940   -4.16784187881348
H           8.71221679795299   -0.71287109383924   -5.13663964391430
H           8.81385042896995   -3.06897703485503   -5.43677021951868
H          10.53049090849063   -5.18197655799797   -6.83088004927250
H           8.03011763260612   -5.32732235197497   -5.03380526204074
H           9.55616611072126   -7.41756764173644   -6.68605248224051
H           7.07183162588031   -7.54170688712749   -4.86938449387235
H           9.66913641346450  -11.95520510403953   -8.07729170366982
H           8.60974140015433  -11.24124012727751   -9.31226730067546
H           8.11188184865289  -12.74722152271242   -8.47220024698919
