118
 SCF done       -204.845181975278          0.000628374399
C          -7.78625153121562   10.26808177341569   -6.63177128069078
C          -7.98033787611796    9.67604123867137   -7.85565692907224
C          -8.08225317647069   10.38113251878288   -9.07198531751030
N          -8.16994347499094   10.88933289422381  -10.09812844208549
C          -8.10905200672052    8.29114981615366   -8.07590822275679
N          -8.23122654917325    7.17365034426382   -8.31662978983739
C          -7.71173518278734   11.70649723474160   -6.39598581559425
C          -7.53259960878337   11.93188757869443   -5.00886557871270
C          -7.43368240397713   13.19010723635084   -4.46854077647368
C          -7.52756944047442   14.28269671998560   -5.33679120596219
C          -7.70709422331224   14.04910730022060   -6.72032395188813
C          -7.79861547138844   12.77476605391685   -7.26817996517592
S          -7.79580694562930   15.54166262194640   -7.60310090571389
C          -7.59835706306452   16.44544283149377   -6.14198912967769
C          -7.47018514172133   15.67364005093311   -5.04061765664785
C          -7.46563960543545   10.63580224763233   -4.30985069843459
O          -7.19243987380498   10.45862787201732   -3.13710409754825
C          -7.67830583223280    9.61070472544938   -5.34692076408011
C          -7.65675903777630    8.25470076729650   -5.13909324885188
N          -7.75714134526272    7.61519797683531   -3.96540378592888
C          -8.33315404031288    8.09034910121327   -2.78416848787977
C          -9.46028045640503    8.85933145096334   -2.73619414846455
S          -9.98318585612682    9.15293166745644   -1.13865061757041
C          -8.68383260503955    8.22970264791461   -0.50172988531059
C          -7.87103789682878    7.72458864199604   -1.47712870082945
N          -6.77575083343792    6.92637021298739   -1.21184541012820
C          -5.62828532371468    6.84203726251239   -1.95855347125622
C          -4.56348146995117    6.12147780338602   -1.57053120062210
C          -3.33179608958103    5.94620889815793   -2.30325995054932
C          -2.25065923591312    5.34050366211496   -1.64312601417877
C          -1.06063831842207    5.14614781260329   -2.29907750696501
C          -0.90946786595409    5.57284256352106   -3.63225854037065
C          -1.97351614090214    6.16410193390226   -4.30113201430124
C          -3.16992810296126    6.34113370380204   -3.63836952990136
C           0.45395317691077    5.33611769191678   -4.04191690251874
C           1.15470808659263    4.78202310739564   -2.95391309418629
C           0.22309694634364    4.53501294034387   -1.78730442598477
C           0.71605583816540    5.20134021870747   -0.49480557418060
C           0.97384055729586    6.69343613517283   -0.67036856117176
C           0.10600011178003    2.99966781095097   -1.63060977257739
C          -0.92327444198059    2.51246345603342   -0.61964133751254
C           2.49530467753396    4.52290911565701   -3.04848926841819
C           3.18345908405128    4.79920053470233   -4.24693146618405
C           2.46165406856384    5.32102109789374   -5.33460860678735
C           1.11459764777274    5.59433374166663   -5.23859115453806
C           4.59655553698527    4.57930157803283   -4.26796725474996
C           5.43460278995130    4.62525317144023   -5.34065289604949
C           6.83792186131252    4.49956305420553   -5.28590600216872
C           7.66679487544064    4.60721365715813   -4.19322056541838
C           9.08001674676993    4.50006429844768   -4.22067771178046
C           9.69364001149867    4.74197329541933   -3.02723267820689
C           8.79819629653250    5.05800669898925   -1.98388360208938
S           7.15488075195053    5.00889696154809   -2.56064019083849
C           9.07590055834580    5.39239559941883   -0.66751459197903
C          10.32345691037019    5.49844622723212   -0.02581520590518
C          10.23700893039701    5.90281116839236    1.27769811750047
C           8.91936886186142    6.13383734589929    1.72446690446240
S           7.78416686671855    5.79870418119127    0.44279342623081
C           8.52960473717034    6.57683109917457    2.97858450602160
C           7.20425479865824    6.80568757655671    3.31376301299181
C           6.66497280468393    7.28853776897824    4.49124335895470
C           7.21195036181878    7.50655537871810    5.79900840777874
C           8.27622147791163    6.85879457135568    6.38688613231200
C           8.73522099727820    7.12345006545578    7.69066884461043
N           9.16912762335607    7.30640713051803    8.73906459229859
C           8.97153508423735    5.77570296915121    5.81768615842189
N           9.55376974717189    4.86000964613226    5.43923073765811
C           6.30422688443102    8.41411589699342    6.50636508567746
C           5.13531883090259    8.58332681950544    5.72476156081429
C           5.29479068297478    7.83701982147102    4.45776500568777
O           4.48205348502683    7.72803720062601    3.56181522284808
C           4.07751557218220    9.35609389442723    6.13301030713955
C           4.18236305947701   10.00589863523619    7.36841991346646
C           5.35831710079075    9.84242503004281    8.13442360062356
C           6.42628789254168    9.05077555865807    7.72498722163862
S           5.28444214035736   10.74414798667387    9.61913738950637
C           3.69303393511170   11.31680180949431    9.19531190776213
C           3.23927227779716   10.85965217265746    8.00518932087057
Br          2.78023540684419   12.46667897912349   10.36457609105632
H          -7.29502678532978   13.32684290659289   -3.40722775784996
H          -7.93172321361292   12.65107462814032   -8.32981127518170
H          -7.59021611563411   17.51658023896096   -6.19961048240010
H          -7.33879502845572   16.06048362292853   -4.04622304614328
H          -7.52012441214850    7.59693413238323   -5.98846928051836
H          -7.51375104461749    6.63260701212474   -3.95289809790080
H         -10.00923389661154    9.25976643242153   -3.56459118481234
H          -8.57964207667327    8.11647586960625    0.55821567039522
H          -6.70795092925462    6.59118257809351   -0.26027379077207
H          -5.63152621892899    7.41115132852159   -2.87374232759514
H          -4.60861377144208    5.62271402957617   -0.60945828146373
H          -2.36576228388993    5.05589177535256   -0.60764834727616
H          -1.86530879975467    6.48861391082444   -5.32561768295460
H          -3.99492023850257    6.79857137800946   -4.16337777426403
H           1.63615507923325    4.71007259857986   -0.17237221433816
H          -0.03065997227885    5.06049743607731    0.28750900924290
H           1.72925369310903    6.86716084677989   -1.43353970794579
H           1.32611241415221    7.12341159472611    0.26405359124934
H           0.06209261667947    7.20771644407286   -0.96752225709268
H           1.09060435701133    2.62016508471504   -1.34828740679494
H          -0.14038069504359    2.58080255998408   -2.61027607156280
H          -0.72113399653022    2.90671114762315    0.37259336939008
H          -0.88618592393895    1.42644310692496   -0.56411124102838
H          -1.92710786666255    2.80053438289089   -0.91945748986846
H           3.04322051432924    4.11780184195873   -2.20994033076914
H           2.97886105721703    5.53687550208230   -6.25697782332028
H           0.58127578090318    6.01271844972643   -6.07929185800686
H           5.01807857933307    4.32462642222507   -3.30522002153378
H           5.01722708880751    4.74147374814161   -6.33186566529364
H           7.34506380813757    4.34979614345233   -6.23156519464852
H           9.60211992705405    4.25427958806318   -5.12891857362614
H          10.75773272650299    4.71544344081577   -2.87643949127282
H          11.24727992254995    5.28367892374533   -0.53258160929334
H          11.08059257940064    6.03913483619708    1.93050589307421
H           9.31937807826931    6.77473548625251    3.68687933078637
H           6.47254708200982    6.68362525538740    2.51889212463620
H           3.19658362645988    9.46019125778858    5.51913141381881
H           7.30357025988335    8.96185078337226    8.34378772022834
H           2.28073245233527   11.11286301061205    7.59013524048958
