103
 SCF done       -198.520874565964          0.000825164557
C          -7.41982637245064   -1.28296611746565   -0.04341797024866
C          -7.50065822804424   -1.45664249287710    1.31654805399143
C          -7.87761196773432   -2.66334468116527    1.93844979550117
N          -8.19137587507430   -3.61304003464269    2.50349730156407
C          -7.19853211128184   -0.47023339122715    2.27690824135041
N          -6.95035721199292    0.27002639569434    3.12005759302796
C          -7.63531739062637   -2.31872189572507   -1.04802502035733
C          -7.36789946774795   -1.76864538148850   -2.32687978584666
C          -7.47224852287491   -2.49923307191529   -3.48460389799541
C          -7.85718451352084   -3.83990501130442   -3.37712463496931
C          -8.12662905880266   -4.37930598817135   -2.09791247759528
C          -8.02177363248633   -3.63893501413633   -0.92520872428763
S          -8.59066706002459   -6.04890006527268   -2.20603416202389
C          -8.41956733041586   -6.01094009974860   -3.92716262571429
C          -8.03461917538629   -4.80790728285077   -4.40565986441138
C          -6.98460397845559   -0.35604268108863   -2.17513269493411
O          -6.74690555901985    0.43449561557326   -3.07402856054649
C          -7.03637496495644   -0.07227532908874   -0.73507154365672
C          -6.96150355817059    1.18296980203839   -0.17540271379065
C          -6.47534997724519    2.36654823037557   -0.74279828423579
S          -7.08816497456205    3.87387183237115   -0.08614078750295
C          -6.12927965882272    4.82882940441897   -1.17444754733266
C          -5.32777850787845    3.99122610661937   -1.96712005770381
C          -5.51207832150981    2.63065194345144   -1.72969656026156
S          -4.51354086199118    1.34848809629922   -2.37181801455270
C          -3.08868045711548    2.10628778279136   -3.10604644861441
O          -2.10798667349989    1.42449038814034   -3.23931418774237
C          -3.14020811963893    3.48116573550834   -3.72445790003066
O          -2.37504917677100    3.78238517469237   -4.60042234893238
S          -4.28941691822624    4.70783735525069   -3.18814610168424
C          -6.19143141321328    6.22374568124030   -1.23406731825181
C          -6.97799219933326    7.00237836896040   -0.41948465456940
C          -7.06358427177541    8.38601682135620   -0.52827502990759
C          -7.84319328313540    9.19262276222422    0.27872565620055
C          -8.00461185431909   10.59031785025229    0.16591803844490
C          -8.84878899459548   11.13466986796985    1.09044383706006
C          -9.38648516257159   10.19480821781603    1.99159909504152
S          -8.79401913089078    8.58766375014397    1.61730598788303
C         -10.24938815097441   10.42967949614465    3.04645374130849
C         -10.82300408285278   11.66040724928215    3.44003051965632
C         -11.64113275922376   11.57382293569465    4.52208815020218
C         -11.75338379628426   10.26570704437583    5.06120663752808
S         -10.79377747408932    9.13971622788149    4.09699984565446
C         -12.45951952042363    9.91994538033290    6.17268001398073
N         -12.49851363538816    8.69842842532091    6.74934231350719
C         -13.32764734360140    8.42996383147188    7.92273530796703
C         -12.98776666979504    9.35004495010444    9.11021599406707
C         -12.18537365092398    8.63127201275648   10.19268121129830
N         -11.39147685437373    9.55489465406818   10.98253864430213
S          -9.75318848215171    8.91913554767584   11.10098156934404
N         -10.14009279820871    7.38135477657768   10.45222734299373
C         -11.18836699004895    7.67498878334558    9.50280382188194
C         -11.94748111175068    6.46992052826625    8.98241802421315
C         -13.19543545835978    6.91452652721741    8.18134103786086
N         -13.13563320777565    6.36127180272103    6.84306578748979
S         -11.94992500843751    7.27006687039497    5.98933920665374
C         -13.51858251063119    5.14661818205858    6.42623231035734
C         -14.33139220650854    4.20523174947333    6.98622670186363
C         -15.31713953471014    4.19184477822868    8.03526183165328
C         -16.14495023293329    5.23370978631267    8.38756752531817
C         -17.13609798403415    5.15688908457553    9.38450017207541
N         -17.93096617377370    5.16600876501329   10.21286927827689
C         -16.14137568599421    6.46455854216472    7.70877763265420
N         -16.16766958709376    7.47458603572933    7.15952128978635
C         -15.50169923662319    2.80510651223845    8.44729735909145
C         -14.84112558410740    1.96756042873284    7.51207568148774
C         -14.15605097936138    2.80402831240445    6.50983607645369
O         -13.53919935198769    2.44826732182263    5.53255288188939
C         -14.87235411949819    0.59758616931589    7.60319569252363
C         -15.57461877508684    0.03007040578951    8.67206343854227
C         -16.22002595628473    0.87613571221050    9.60579213536431
C         -16.20002350518949    2.26299450950704    9.50743801497195
S         -17.01332784449453   -0.04363922928633   10.84446930917325
C         -16.49087735348298   -1.52202270986814   10.11540001237549
C         -15.75430356989112   -1.34385288635413    8.99698102628439
H          -7.25878709502808   -2.05205577696740   -4.44302374276850
H          -8.24022578088877   -4.09571644533183    0.02566085967988
H          -8.62125559167028   -6.90675983896444   -4.48169329410757
H          -7.87699667807574   -4.59673341206564   -5.44792892715095
H          -7.39169866219784    1.31289692914375    0.81088394759711
H          -5.57624023294470    6.69901547732812   -1.98652790742388
H          -7.57282952462720    6.51320020266482    0.34308067045363
H          -6.49410122815553    8.87722381281526   -1.30629986491743
H          -7.49765678196602   11.15227851967427   -0.59832362160576
H          -9.08800558422953   12.18129762668081    1.14678544236361
H         -10.61131591127824   12.57439128610950    2.91582701124916
H         -12.15941927312954   12.40608794249902    4.96374648976118
H         -13.01302230467088   10.69066184114462    6.69018808335523
H         -14.37443984144202    8.60509648493313    7.62746764217265
H         -13.90736353819140    9.75216010585265    9.53441924064965
H         -12.38343884439557   10.18929941232921    8.76489075457140
H         -12.86348180646204    8.03911835594237   10.82738850886327
H         -11.77250827876567    9.70440617886618   11.90957491217522
H         -10.44188757023190    6.73200882188262   11.17651812495806
H         -10.70310370617373    8.21742823177358    8.68335395300434
H         -12.25704728688684    5.84651829153857    9.82473693029290
H         -11.29452495220165    5.86739939178352    8.34915563321722
H         -14.09517054181097    6.56442106705567    8.68735123672176
H         -13.02971601376555    4.82844178815876    5.50885737816179
H         -14.37120958282237   -0.01766291876429    6.87246336341371
H         -16.70299845465235    2.86929763978212   10.24308773852870
H         -16.77210579080045   -2.44801063792965   10.57801060746405
H         -15.34419602000033   -2.14673753668637    8.41181760699709
