114
 SCF done       -213.290130345227          0.000793001798
C          -2.00900380297724   -0.78118788631013    0.32987283213900
C          -2.46575672448481   -1.96882651333785    0.83800123458384
C          -1.71781723830309   -3.16501078493327    0.84866024257116
N          -1.15762749092846   -4.16608084449962    0.89201555881855
C          -3.74641995163415   -2.17651531635448    1.39380849880932
N          -4.77259723049388   -2.43932553309379    1.83667385297155
C          -0.73077054626101   -0.57344738313405   -0.33679317340500
C          -0.66949476608154    0.76467330049066   -0.80134712996807
C           0.41486421990681    1.26102399288622   -1.48426042892431
C           1.48541586645252    0.39634415205108   -1.72986576414203
C           1.41686738181997   -0.93718664274422   -1.25906117227069
C           0.32408358972716   -1.43826131869486   -0.56212924798838
S           2.85232906844510   -1.82242953046645   -1.66826571543342
C           3.51562599324416   -0.43155743036240   -2.45368669492056
C           2.70758898740673    0.65036385323927   -2.41379976003492
C          -1.89829594536775    1.47936124589353   -0.41634193789070
O          -2.10477101258244    2.66837679549120   -0.53319034270403
C          -2.74751319906613    0.46837028671168    0.27386432742610
C          -3.93295915316081    0.73709379166826    0.88251170336606
C          -4.74094305271763    1.88884203171821    0.63371352807497
C          -5.49665125107136    2.47566647303627    1.67139377415808
C          -6.30087003692233    3.65049723592635    1.45527987296507
N          -7.08143326343955    4.10796625252857    2.44391665825009
C          -7.00461182329586    3.55985065520964    3.62912437774234
C          -6.09882017793485    2.47450877092772    3.87873946856460
N          -5.40605363147503    1.94542933618496    2.90376772250959
C          -5.96984149187170    1.95650439378035    5.19198508722846
N          -5.89078203637798    1.58166211261778    6.27137712450881
C          -7.83069198215809    4.06453056718569    4.66325374061786
N          -8.47127989302252    4.48533251528798    5.51464107196350
C          -6.33101705100430    4.31195454740252    0.20559581462063
C          -5.62915192283471    3.69086902074554   -0.84212326933815
C          -4.87302137191876    2.47583503759277   -0.63852058860938
N          -4.34711940470359    2.02437655192470   -1.77841981182086
S          -4.68886327565412    3.05622045621979   -2.95197335174751
N          -5.54385888044345    4.11181720025070   -2.10953862882768
C          -7.05182960313622    5.54511509242641    0.02296198389518
C          -7.77846685895966    5.80511205122004   -1.15549366510510
C          -8.44139656176378    7.06826455539505   -1.38291785105847
N          -8.90578212683276    7.33376744394926   -2.61332973648428
C          -8.88670450997313    6.41044148488245   -3.53843164789324
C          -8.48480065233347    5.06999735137234   -3.20832744411266
N          -7.92634028991464    4.82230954886808   -2.05564370415880
C          -8.67631735725096    4.01064833638620   -4.12757797067537
N          -8.82290170897433    3.17707445974466   -4.89981868806536
C          -9.29561716041453    6.73275694646445   -4.85430624751905
N          -9.62957379208047    6.95362960582268   -5.92805569260490
C          -8.54188410193223    8.05867361530693   -0.37783456599109
C          -7.84391898489002    7.77645266379518    0.81464776234846
C          -7.09167511908628    6.55403700747244    1.00228130323242
N          -6.46007836136370    6.53747291302518    2.17906037429995
S          -6.82069350068487    7.86806807366959    2.98935151791937
N          -7.76109997635307    8.56406737766026    1.89470937085957
C          -9.28272893739102    9.28808551293180   -0.57185436033244
C          -8.88657233975565   10.45626214810582    0.10279456785185
C          -9.59561311850714   11.62001785800974   -0.05725346971361
C         -10.71372434994612   11.64404347036012   -0.91701473300135
C         -11.11753072737361   10.49574778099533   -1.58813876973731
C         -10.41002373314518    9.32890187824382   -1.40704341879030
C         -11.28271905411421   12.96603764275170   -0.90815958611753
C         -10.54716705291637   13.76053283456947   -0.00987034747725
C          -9.40634579065624   12.96879933325265    0.60503904132063
C          -9.67621047230407   12.88983400576757    2.12570570011816
C          -8.65347835996376   12.14088096541462    2.96938819915865
C          -8.07911866659792   13.68671772537413    0.25963738083868
C          -6.84314236033065   12.81179012000861    0.08817910244643
C         -10.89129907897625   15.06932834720280    0.20952913181002
C         -11.98173408167726   15.62826103567599   -0.48269793965461
C         -12.68220713035492   14.82664981645788   -1.40336228766570
C         -12.35294333683344   13.50721752179283   -1.61292543299551
C         -12.41057301001157   16.98108212134044   -0.28472762794419
C         -12.03412429817133   17.80710402583590    0.72813946233062
C         -12.52209710036870   19.11734268613937    0.87863062346260
C         -12.23681187804744   19.93178675599818    1.94364381351174
C         -12.70875275597023   21.25238562946815    2.15798246351979
C         -12.29572489839857   21.81396030040223    3.32435942921074
C         -11.47059279803372   20.97020453571155    4.10889523855023
S         -11.22412325541936   19.43946949630236    3.29379097076096
C         -10.92574069255234   21.23547787282329    5.34419158402281
C         -11.06848540136694   22.42569298892895    6.11190626553417
C         -10.43844558589182   22.39601109388467    7.30678971255575
C          -9.74209013467286   21.17121466491507    7.57930328119850
S          -9.94209452373003   20.07166293477890    6.20552632296001
C          -9.04219981251507   20.85126021650110    8.67616874292182
H           0.43246640531662    2.28521929477607   -1.82344374904803
H           0.32258867254182   -2.45921537710776   -0.21861666453465
H           4.48645324761032   -0.51129075829740   -2.90297826794224
H           2.95420986066230    1.60235075606471   -2.84802785191686
H          -4.31496436452692    0.06470170727551    1.64006824943495
H          -8.01280139473962   10.41275998487333    0.72685077426691
H         -11.98645689896240   10.51244148539945   -2.22836446560474
H         -10.74416285389416    8.42692832599847   -1.89293604832538
H         -10.65434075301660   12.41979385428964    2.26067554022339
H          -9.75294582432963   13.91422129469140    2.49881120799455
H          -8.58720579155122   11.09698703321716    2.67909542600645
H          -8.96141350835407   12.17948984354584    4.01260261332390
H          -7.67146997161936   12.59940570437731    2.89501972987238
H          -7.88830199381632   14.43071714047064    1.03590137912687
H          -8.22982750202056   14.22823261697913   -0.67846425598345
H          -6.61476824732096   12.24866061085962    0.98750056037291
H          -5.98922131338236   13.44810787706982   -0.13784398621278
H          -6.97346796040123   12.11678654938200   -0.73725048815098
H         -10.31881305591599   15.67893688742860    0.89116267872107
H         -13.51064502334598   15.26285232021341   -1.94295765005308
H         -12.91128317063543   12.90474104844142   -2.31335174794788
H         -13.13735663559290   17.35402721736785   -0.99653185150020
H         -11.34985369208365   17.45930620419325    1.49036258489932
H         -13.17978238947105   19.51130443327676    0.11464000943275
H         -13.34362516476525   21.73956990973517    1.43899804948748
H         -12.56221038234981   22.80454326945567    3.64621265788404
H         -11.63844298588225   23.26194394763592    5.74793508018964
H         -10.43654898543979   23.19864670704228    8.02255785059668
H          -8.94796879871344   21.54869496593673    9.48966438595932
H          -8.55783162136224   19.89776190444292    8.78038061551632
