99
 SCF done       -189.016666123135          0.000550574264
C          -3.71838216633954   -1.65271876696675   -0.14381543478933
C          -4.64081460469866   -2.50742764819623    0.40275597720850
C          -4.48194965927421   -3.90689268496387    0.46678196515925
N          -4.40653685335116   -5.04959902501094    0.55053941459067
C          -5.88889688374551   -2.11585555456776    0.93205006106455
N          -6.93535244640663   -1.88835609887198    1.34653997889212
C          -2.48522497466893   -2.04143679464121   -0.81525496664940
C          -1.87806436789596   -0.88140122721180   -1.35852871789665
C          -0.70202869286755   -0.92740063275989   -2.06745943492442
C          -0.10057613944474   -2.17536088235156   -2.25763137493362
C          -0.71209139613085   -3.32689809511316   -1.70719364228962
C          -1.89820258548474   -3.28113156367275   -0.98421306700842
S           0.20775064902299   -4.75614988568337   -2.05913739150088
C           1.37646841528068   -3.82008368098503   -2.92533297686605
C           1.09901667948768   -2.49834902535758   -2.95289187786165
C          -2.68415736401590    0.30530924840935   -1.01718561725168
O          -2.37857441750257    1.46222167680856   -1.21428538764835
C          -3.85291396315450   -0.21424254570728   -0.25817863266789
C          -4.77522805960515    0.56514806023641    0.37425439488797
C          -5.03808190089263    1.93226451218613    0.08008491810753
C          -5.45098873614822    2.81775154155159    1.10513648596421
C          -5.72156966438412    4.20346723477422    0.84623204568120
N          -5.81876129760569    5.06379328896876    1.86024205697400
C          -5.85282602428711    4.60344771837060    3.08779540705759
C          -5.82218106246036    3.19090601663076    3.33114058334804
N          -5.55951584770369    2.35192974064485    2.36007156166513
C          -6.00810046060264    2.69454716038273    4.64611704549806
N          -6.15227091773266    2.33321922413137    5.72331068681580
C          -5.87751823148954    5.51942249116235    4.16684487382501
N          -5.88661924596745    6.23463068560941    5.06174797348888
C          -5.78587244588995    4.71111633356774   -0.48015216221833
C          -5.34470540273225    3.84041782676433   -1.50162024779433
C          -4.99408297676216    2.46713977638898   -1.22599752249937
N          -4.72717530945142    1.79820491087124   -2.34740256552051
S          -4.83069108706839    2.79101637077921   -3.59639079774443
N          -5.26970834781413    4.12339319815309   -2.80314155213625
C          -6.30853760566650    5.99219306393312   -0.74326403919223
C          -7.16926324306038    6.78638232004771    0.01941602404891
C          -7.42970014920659    7.98555715482393   -0.69100935277445
C          -6.70691700979388    7.91291549928733   -1.95616673610335
O          -6.62276713416272    8.67875322330780   -2.89570537695746
N          -6.07588972573330    6.67940448140731   -1.90865179017789
C          -8.38517531050855    8.69691624314009    0.04076713385976
O          -8.73538082977886    7.94993833304204    1.14236022965982
C          -8.04864917478467    6.74673526625376    1.16951644251412
O          -8.28806692498154    5.90875304140522    1.99477087164410
C          -9.08044565134291    9.89432969815689   -0.07525983804395
S         -10.37034894260096   10.12325651397273    1.07506043906397
C         -10.85777243230023   11.62483018660868    0.36496038050364
C          -9.97169276233224   12.00009963927877   -0.67268099827999
C          -8.97834259882370   11.01463774130536   -0.94049165942525
C          -8.02350161530973   11.24463535843871   -1.92780686714737
C          -8.01818572161363   12.42881835826204   -2.64826991463990
C          -7.01000439115784   12.65418745292390   -3.67766032045248
C          -6.34504198124296   11.69661400218475   -4.31645798873253
C          -8.97504901165443   13.43599642862119   -2.34733905892118
C          -8.96911460169589   14.74524094374817   -3.07652599591192
C          -9.92337638431753   13.21208492092259   -1.37766336714099
C         -12.03708260391607   12.21938311162114    0.85861346648077
C         -12.81634359275130   13.14311777405212    0.23040732232603
C         -14.02957676102573   13.66277923573262    0.75206899483557
C         -14.62821123895731   13.41426749947245    1.99441410042572
C         -15.84483630369784   14.13060918671400    2.06272579252181
C         -16.80741730976309   14.20974498800779    3.05263833291815
C         -17.92863875159779   15.00547408557512    2.80327169071160
C         -19.05976098224810   15.27924444850345    3.57518406411550
C         -19.91568698800744   16.15247697081486    2.85075407022333
C         -19.31444409249799   16.42372726568053    1.62656409132058
C         -18.07445712836198   15.72719856059324    1.55438322659592
C         -17.11940079225887   15.65463399543573    0.56917316052234
C         -15.99238715063410   14.84990699173955    0.81310015849839
C         -14.88207713360045   14.55621032650050    0.03340770614900
C         -21.19003560582000   16.67873435900551    3.27946834910120
C         -21.78302527813767   16.41624397594879    4.44075492645268
H          -0.26196983741799   -0.02695504888331   -2.46737796729119
H          -2.32148059414968   -4.18482520815250   -0.57837321519893
H           2.21273686714210   -4.32656281022799   -3.36679315362370
H           1.71278850101095   -1.76456150909453   -3.44339688979022
H          -5.34662877900869    0.15811177141731    1.19936235625166
H          -5.52714053382630    6.29009804235333   -2.66377216504203
H          -7.27902737139438   10.49560440145449   -2.12856320927416
H          -6.81609535845467   13.68716726885088   -3.93180964549790
H          -6.50585242070131   10.64934608492699   -4.12996418337262
H          -5.60981779308610   11.94145866266489   -5.06468456300451
H          -8.05192411212813   15.29626549086805   -2.87010566028212
H          -9.81041813061139   15.35962670654702   -2.76525132771806
H          -9.03436149168099   14.58692713178408   -4.15175419194328
H         -10.61693322374734   13.99947110539441   -1.12974104182971
H         -12.38237960753415   11.81918416631351    1.80275470010497
H         -12.55219234486933   13.48048176113727   -0.76114039777579
H         -14.24104392576094   12.78606933406486    2.77444452058693
H         -16.70305989039104   13.67256186217666    3.98469863691416
H         -19.25074582958989   14.89046266091649    4.55844076697257
H         -19.71603951239032   17.05422900731832    0.85405324901670
H         -17.22356528820786   16.18905050823967   -0.36463561436282
H         -14.68508617579487   14.92826690535872   -0.95628924648882
H         -21.67382893109792   17.33555267139888    2.56742623661907
H         -21.34293198282987   15.76721597144783    5.17821475688800
H         -22.73812952866921   16.84263751129486    4.69287751935889
