114
 SCF done       -191.697656451810          0.000643167894
C          -3.07395101967976   -1.30589731282896    0.21749906982211
C          -3.58289493738556   -2.35243771269606   -0.50691386018817
C          -3.00294124295567   -3.63671248657890   -0.55594252517015
N          -2.57583616124889   -4.69923856875271   -0.63979710509888
C          -4.76994017768892   -2.30609709581552   -1.26824465520577
N          -5.73834693902069   -2.36482855724714   -1.88248877185808
C          -1.91810599467163   -1.36224945614321    1.10282969061656
C          -1.78883639734913   -0.11412705467216    1.76175077810453
C          -0.79395130079833    0.14040699007862    2.67437995788243
C           0.11246693600333   -0.88572985438631    2.95712913063486
C          -0.02161675110594   -2.12715457304518    2.29093107973995
C          -1.02444440617690   -2.38397589888221    1.36350826334321
S           1.21153249373056   -3.24295617234975    2.78824472712153
C           1.87954538396764   -2.06370203613261    3.86338065199488
C           1.21682199613720   -0.88675703252556    3.85537490140579
C          -2.83977453938123    0.80588258730518    1.29106644054943
O          -2.93249685368552    1.98483090042353    1.56127471192529
C          -3.64897611642214    0.02150413739354    0.32047120979375
C          -4.63566064890396    0.54164841007198   -0.46006306401842
C          -5.31091667784127    1.77104923333474   -0.20128137950951
C          -5.74813113755557    2.59201641640289   -1.26189194601933
C          -6.37321312322847    3.87082066277885   -1.02751939324891
N          -6.64512040836746    4.67112282580207   -2.07046942219858
C          -6.39953988669936    4.25406177979850   -3.28814817160461
C          -5.85336513362432    2.94923970259162   -3.52124474784273
N          -5.52251721509611    2.17301846354084   -2.52003068781138
C          -5.65215587298619    2.50116790406128   -4.85071964366090
N          -5.50537907616579    2.18803069212533   -5.94283567164877
C          -6.69430106682836    5.12074701447947   -4.36908575009645
N          -6.94407833040078    5.80585397360391   -5.25295587644722
C          -6.63857995735911    4.34819336459053    0.27825685290889
C          -6.26973267520539    3.48960527750148    1.33012190633187
C          -5.63433613988655    2.21263803129182    1.09658388920736
N          -5.46699646423038    1.52725839939246    2.22707803740064
S          -5.99909701021147    2.40997123633957    3.45356059872622
N          -6.50220493622382    3.68923307217731    2.63231119257699
C          -7.22159768370960    5.65287318212934    0.50994828487791
C          -8.18708055385686    6.17510766822416   -0.36572057062125
C          -8.64939174228251    7.45051946424109   -0.17320443219832
C          -8.17267445920906    8.23563774855280    0.89188774291238
C          -7.25245389520516    7.70961372862382    1.79136874049330
C          -6.79215365607097    6.42528993381367    1.60005856248016
C          -8.77288538412260    9.54369284356777    0.79891303272523
C          -9.63169425458462    9.56954238696403   -0.31793573920013
C          -9.68206734936030    8.20979114830739   -0.97763270077517
C          -9.32452701294769    8.26119442375946   -2.47070058778524
C          -7.91068626623671    8.77451787365460   -2.71577990208882
C         -11.04297194120604    7.51245865872764   -0.74062934309213
C         -12.26005786596860    8.22950255855866   -1.30961833793348
C         -10.26188430723114   10.73448176836435   -0.68030774266445
C         -10.07670766201777   11.89507919111599    0.08731003216505
C          -9.22410159588301   11.84698135522811    1.19997261393232
C          -8.57389196923835   10.68735409931717    1.56184197483699
C         -10.72399077709035   13.14440844978485   -0.23804555460133
C         -11.82591358253315   13.28552432138653   -0.99661777012511
C         -12.48991823607754   14.53499208865222   -1.28236276340331
C         -11.79449377770242   15.78050356772175   -1.41399560853739
C         -10.44260240634992   16.01264157881194   -1.47089791564465
S         -10.07405065617611   17.66664408399495   -1.69274633213198
C         -11.72498795440023   18.09131096001004   -1.72738708433031
C         -12.54785589086912   16.99566580964833   -1.58122233985170
C         -13.97572572406764   16.97355614727025   -1.61749404813390
N         -14.64174760574798   18.14965365527427   -1.81628999665412
C         -14.62652728611102   15.73891707048845   -1.55521238388963
C         -13.85806750038839   14.56098846056469   -1.41164155333667
C         -16.07262384116163   15.65849088106076   -1.57272207416146
C         -16.80551087394248   14.58817450025135   -1.92811991758402
C         -18.23926064598699   14.57886589363277   -1.86774139263682
C         -19.04103435292214   13.56368771979300   -2.22297167988411
C         -18.56452782526855   12.25789246769298   -2.77972751226420
C         -20.53475934193972   13.67047916158434   -2.05932700897571
N         -21.20781627127683   13.49217336180462   -3.33237525667610
C         -20.92587334335151   14.34634276526850   -4.37569245902136
C         -21.73428919983429   14.58944745846320   -5.40085021135598
H          -0.72032544691732    1.10230884731767    3.15782126497904
H          -1.08062673604276   -3.34364766550112    0.87731232818041
H           2.74173350324815   -2.32994474156031    4.44336773124476
H           1.48827758229730   -0.03863321557429    4.45766884867892
H          -4.92535132080311    0.03776469798271   -1.37346443836167
H          -8.56172694994613    5.56900454710017   -1.17422292389290
H          -6.88955201010776    8.30207580053472    2.61776453685998
H          -6.05754079826743    6.01139753423800    2.27205891519439
H         -10.03326003201941    8.91006603113688   -2.98678399089670
H          -9.41787273112216    7.25846992299852   -2.89195104536942
H          -7.78858079520361    9.77614135590961   -2.30793062017659
H          -7.70702333567294    8.80526053711338   -3.78323994403169
H          -7.17854897985852    8.11943843966207   -2.24969084704212
H         -11.17809385837606    7.39549318977926    0.33820152058159
H         -10.98174672046236    6.51252099065498   -1.17560214968717
H         -12.40519935405443    9.19010635851809   -0.82257532981360
H         -13.14792944608094    7.62511510921081   -1.13547420945525
H         -12.16293659202742    8.38420604813093   -2.38082255065433
H         -10.87066039931891   10.77986460856015   -1.56954046447162
H          -9.07939793679535   12.74600367785866    1.78247367816691
H          -7.91187931478450   10.67111652701135    2.41473670636827
H         -10.30552222852161   14.01960485697255    0.24098464949568
H         -12.33384483285803   12.40252116574952   -1.36340294356177
H          -9.64152628708267   15.30339899275705   -1.43915457479012
H         -11.98703063645262   19.11929287916277   -1.88037884950365
H         -14.15749576888522   19.00689898003173   -1.61891970248431
H         -15.63946117461463   18.16118920206506   -1.69604933846870
H         -14.39309700793687   13.62782332247421   -1.31851099268966
H         -16.61281771975333   16.54292438230192   -1.25216038831170
H         -16.31857342193712   13.69423650781802   -2.28567783745478
H         -18.69531947064850   15.48460370878466   -1.48366621987365
H         -17.69122388482916   12.38501840023743   -3.41326209231659
H         -19.35685279417347   11.80106345766148   -3.36726721631437
H         -18.30273475756882   11.57652964197636   -1.96912532732816
H         -20.79304196032408   14.63198586486123   -1.58729628950304
H         -20.87562643392924   12.86645124715967   -1.39729513641823
H         -22.18121673795820   13.22961781029184   -3.26394456012873
H         -19.93340162981289   14.77436036024396   -4.32867858874635
H         -22.72156537037352   14.16337532364719   -5.45889494857758
H         -21.42168972901288   15.20553959532823   -6.22205784301882
