119
 SCF done       -196.714567410556          0.000675846908
C          -5.16507177790850   -2.53785922433447   -0.68594026334023
C          -3.84275335558687   -2.89593929912510   -0.63122252199191
C          -3.38440628796243   -4.22889454717841   -0.61428152960227
N          -2.95413092096517   -5.29340044227736   -0.60471613755295
C          -2.76849423167332   -1.98640376278850   -0.53380511932153
N          -1.84413563238489   -1.31561246998700   -0.41513466757450
C          -6.30187242479164   -3.44752532935655   -0.65285807111047
C          -7.49263984326027   -2.68319235234755   -0.56787302965919
C          -8.73753036671262   -3.26163984268962   -0.51200732224032
C          -8.81221777427631   -4.65784273013766   -0.53332452346780
C          -7.61776428978993   -5.41163975129335   -0.62103058165897
C          -6.35797530742874   -4.82806115272334   -0.68300187368547
S          -7.94984758253814   -7.11537083819367   -0.64116914820785
C          -9.64904935581301   -6.81013941225651   -0.53158437820974
C          -9.96123014049872   -5.49685722026000   -0.48259569896261
C          -7.16176211682468   -1.24557298448741   -0.58071738949644
O          -7.95263800044007   -0.32787640107381   -0.63527106208479
C          -5.67865740849475   -1.18277403532291   -0.66503304753417
C          -4.96423682041222   -0.04535828105572   -0.88686101679287
C          -5.43278672239608    1.27786587302236   -0.63621256266683
C          -5.01588146901140    2.35566431627444   -1.44514333792747
C          -5.47992219118241    3.70422575920014   -1.22376316503537
N          -5.02247536101486    4.69550126129607   -2.01008984649051
C          -4.20387521316853    4.40990424245652   -2.99304195416402
C          -3.79732674606394    3.05924109775790   -3.24866091458296
N          -4.19824624088504    2.08059329463260   -2.47601590788100
C          -2.94715492294197    2.77716245417516   -4.34660591314009
N          -2.26991142397967    2.59170667711664   -5.25187634349619
C          -3.70547445850865    5.45081362135032   -3.81434647318118
N          -3.27900223382265    6.25717728956431   -4.50812414428688
C          -6.36554106457794    4.02378618165048   -0.16848135017664
C          -6.71203042503752    2.95961835709819    0.68517200168444
C          -6.25425788042087    1.60653446305686    0.45838115778019
N          -6.66334262984985    0.77471734729656    1.41506128542134
S          -7.58282277198335    1.58378236875258    2.44788568075153
N          -7.48496526911884    3.03409094237659    1.77524957130235
C          -6.86036154826531    5.37255060237968    0.04870310659547
C          -7.16414885660639    6.20732589653151   -1.03779565215585
C          -7.59177227198563    7.49532271050812   -0.81513007523617
C          -7.73472077107346    7.96236876260827    0.50625458962256
C          -7.45528214471256    7.13847602917162    1.58781575713223
C          -7.02426610698613    5.85083273112983    1.35507303344019
C          -8.17750654998143    9.33690446602680    0.47424621710532
C          -8.31290165287606    9.72419639674107   -0.86703429430404
C          -7.98864503860950    8.57424966586153   -1.80271499336552
C          -6.85832294830988    9.02969703655845   -2.75655217557982
C          -5.90384975077258    7.95745735484335   -3.26476276229542
C          -9.30262478677047    8.22159957618676   -2.53794953373115
C          -9.23772481172933    7.09684204911808   -3.56134873615153
C          -8.67671976764384   11.00973099690854   -1.18449003474600
C          -8.93141455043007   11.93893799116416   -0.16421670023671
C          -8.81077810440688   11.52805236397101    1.17019933086922
C          -8.43432455136536   10.24182088521923    1.49586691772671
C          -9.28453443230432   13.28866024208432   -0.54164936649293
C          -9.71905077790527   14.27523330548503    0.26263692461093
C         -10.01646488389109   15.58635290567748   -0.23980415961421
C         -10.50919933803586   16.62895441186720    0.44471843146530
C         -10.89887813750959   16.62333574042093    1.88851622345979
C         -10.76130690124851   17.93610056585913   -0.26395080725704
N         -12.16888132149074   18.05325530495686   -0.57653220225915
C         -12.82556070416215   19.22601576036036   -0.68429089662969
C         -14.07205320370659   19.35900894943875   -1.20235190606026
C         -14.77306566215355   20.58251650840766   -1.29179531433941
S         -14.12021051002814   22.07378424514991   -0.70345825922961
C         -15.52423134133615   22.99578578690290   -1.16338043401980
C         -16.45683685965095   22.17077017093233   -1.79409411526194
C         -16.04110244808617   20.80265106274932   -1.85415218036769
C         -16.88080668379390   19.85046450310858   -2.45115462299585
C         -18.08560715523067   20.21467157052656   -3.00589760044410
C         -18.94151356776770   19.20730053286113   -3.62723425182850
C         -19.03437173882589   17.94469058164559   -3.22928895845024
C         -18.47484964572939   21.58888523684422   -3.00201737272487
C         -19.76679843809725   22.00451759914543   -3.63822465159467
C         -17.67685130820561   22.52690775570918   -2.40798342271924
C         -15.52487638049886   24.38847670473410   -0.83384532968370
C         -16.58297347378935   25.19387822046774   -0.71627588354427
H          -9.62721404381347   -2.65408108466418   -0.45063424313100
H          -5.47692128769357   -5.44358261543706   -0.75752440690004
H         -10.31933199162100   -7.64740082141393   -0.51114058122541
H         -10.96533423700921   -5.11882895069713   -0.41438921160879
H          -3.97169876624362   -0.10884991985243   -1.31488861688557
H          -7.06782586080346    5.81284318172658   -2.03388737503963
H          -7.56480133606463    7.50366508596825    2.59793304012555
H          -6.78457739342053    5.20532048581119    2.18426439628303
H          -6.25996106220992    9.77441081024031   -2.22428937505943
H          -7.32137713320265    9.53368193823436   -3.60795216047447
H          -5.37564804144596    7.48495588988791   -2.44160355124047
H          -5.16393918874271    8.41586445082807   -3.91752379160948
H          -6.41651990169558    7.18913264953334   -3.83477182690147
H          -9.65151530127975    9.12787797774187   -3.03967352413869
H         -10.04555712814565    7.96371631635184   -1.77737144022105
H          -8.54109638148966    7.33161844927284   -4.36088559542443
H         -10.22307833407296    6.96064213865170   -4.00384453425780
H          -8.94780399515783    6.15888627166849   -3.09768798834266
H          -8.76561037620774   11.32021227163245   -2.21601168037578
H          -8.99528454082647   12.23715420219048    1.96241987730277
H          -8.33217464197718    9.94728899099228    2.52971823833278
H          -9.18601981404213   13.50349034911705   -1.59988655000648
H          -9.85336874288550   14.09987118733826    1.31864610681154
H          -9.79886013029922   15.72900919131371   -1.29256401021592
H         -11.00166657961637   15.61719271169494    2.28110971450710
H         -11.84608844090805   17.14611285895723    2.01549768159424
H         -10.14817022706354   17.14942081574253    2.47994256489596
H         -10.15912223658974   17.98989222513779   -1.18235067700603
H         -10.48635649917522   18.77757500316756    0.37774408998458
H         -12.59064262719944   17.24192705877868   -1.00539773693598
H         -12.30277552955742   20.08936773347128   -0.29500760213546
H         -14.57475328044532   18.48380416727116   -1.58935689280938
H         -16.56329559929970   18.82053653201811   -2.50150939518362
H         -19.54016477895184   19.54055277079915   -4.46398460872506
H         -18.49333513249627   17.57042282773093   -2.37608379770229
H         -19.67748031092198   17.24091019195585   -3.72938669172743
H         -20.59857570788434   21.43322765411137   -3.22841529729644
H         -19.73767600595138   21.83429181467263   -4.71466926167258
H         -19.95338842440079   23.06189107336581   -3.46730538005809
H         -17.96919406273273   23.56426062352860   -2.43239109885826
H         -14.54097731446213   24.79140322626167   -0.62170465413332
H         -17.59381392888275   24.85190176573740   -0.84281718116954
H         -16.45736389540547   26.23090184934355   -0.45891921192312
