108
 SCF done       -186.501699816469          0.000330008761
C          -4.50900119171778   -2.00814205247156    0.35689802296504
C          -3.74746319543276   -2.53811233296579   -0.65293344533299
C          -3.12246827073171   -3.80115295390409   -0.59436279454587
N          -2.59796459787271   -4.82228689096318   -0.61649991372563
C          -3.47005014440429   -1.90796662633160   -1.88402673210085
N          -3.17917729930513   -1.46412151398749   -2.90267463841194
C          -4.73282429950572   -2.61594894240053    1.66168931350105
C          -5.52672001714726   -1.73974659073778    2.44390807123034
C          -5.89645431009188   -2.02922764872347    3.73526378511781
C          -5.45801730163985   -3.23730311555074    4.28496098686351
C          -4.67005522972092   -4.10872845334205    3.49501192870118
C          -4.29911022078115   -3.81847180547617    2.18765167747865
S          -4.25025484831140   -5.54509530867509    4.37341178999431
C          -5.11215020056805   -4.97796599392597    5.76173481497577
C          -5.69067566625021   -3.77028706320501    5.58401523743883
C          -5.87477680613183   -0.55078553511731    1.65037964202424
O          -6.67451132408639    0.30936584087998    1.96123474430385
C          -5.16687775458148   -0.71500467077331    0.35071016587620
C          -5.25805279766203    0.14577697064110   -0.70222652408293
C          -5.67558306155441    1.50204549853784   -0.60856726322247
C          -5.42625691798893    2.29936060787988    0.52987272039417
C          -5.98503904788500    3.62250897163979    0.66551792162015
N          -5.79266091574523    4.29565748747631    1.81129203530417
C          -5.11248988205056    3.74473835732779    2.78347327677475
C          -4.44878839434574    2.48871410798509    2.58845251690270
N          -4.60333142566098    1.82403953835278    1.47348084391519
C          -3.59315314627018    1.96359371022209    3.58722221906697
N          -2.93628341087963    1.53861591579660    4.42436349833131
C          -4.98155214687348    4.43391661395074    4.01398757570584
N          -4.86966951711772    4.95736416751049    5.02702244863837
C          -6.72305684173915    4.23702750117862   -0.37211401857391
C          -6.81387573946937    3.50421927281154   -1.57334247326694
C          -6.31205381138843    2.15205500578460   -1.68272558887265
N          -6.58026617522598    1.61250668427260   -2.87122981742559
S          -7.36263912751236    2.68883715715481   -3.76715736941815
N          -7.42514182309160    3.88403929237045   -2.70136991209972
C          -7.40310946794393    5.50638178176905   -0.20117149463944
C          -7.54109348666440    6.37790985873902   -1.29453455179717
C          -8.21748908698864    7.55931733666426   -1.13292998753810
C          -8.77608885940502    7.90465324258031    0.11125152712503
C          -8.64251433394237    7.05181473258190    1.19808662278510
C          -7.96244350486078    5.86328440441022    1.03459631645134
C          -9.45459350782612    9.17288115463741   -0.02560404171182
C          -9.31970890050332    9.61420816663159   -1.35435800183096
C          -8.50281530403307    8.63001503682249   -2.16010456235110
C          -7.20153352344389    9.27195815496333   -2.67689927011680
C          -6.34810556224480    9.86282854719044   -1.56118315906676
C          -9.30373622223669    8.06287675916934   -3.34669810852378
C         -10.59826208525365    7.38453192591745   -2.91545327306279
C          -9.89866048096651   10.78976438268936   -1.76550411464821
C         -10.63190580292883   11.55826878600882   -0.84946567640877
C         -10.75181597509430   11.10412322712591    0.47155863915486
C         -10.17120045859455    9.92625071893746    0.89315747239910
C         -11.29612432711985   12.79387490272961   -1.20867580642088
C         -11.17527216321107   13.47005112962863   -2.36162880046971
C         -11.85961407375034   14.70396608940470   -2.68039200768564
C         -13.10965629027220   15.04701636541401   -2.35319731209779
C         -14.08747081513916   14.16166430005790   -1.64486783267544
C         -13.69583000053973   16.39367895563687   -2.72757845983839
N         -12.76226772638166   17.37326795657229   -3.21360560080447
C         -12.34565230323523   17.47084617901368   -4.49674486333704
C         -12.78689517286610   16.73536701031670   -5.54706625423644
C         -12.33859221936968   16.97940684734544   -6.86873045799692
S         -12.91974683883883   16.01557878002307   -8.19988214944752
C         -11.44737934911041   17.93011011908611   -7.34532912939804
N         -10.72735334295034   18.90685181730765   -6.72463802301601
C         -10.02618668812635   19.56490037061363   -7.56060643748113
S         -10.13427203081826   19.08831673787942   -9.25577348559923
C         -11.25882388995350   17.86235216903335   -8.75853971902985
C         -11.97647844176766   16.88416660005826   -9.39900141396601
C         -12.00413341467683   16.57043810900324  -10.79230829140441
C         -12.72923948079887   15.59674228109760  -11.34202702033605
H          -6.50088068619282   -1.34091218945157    4.30550378333248
H          -3.70038919939502   -4.51665438173428    1.62685884762875
H          -5.13183229857077   -5.59459891332609    6.63928593519376
H          -6.26477373947782   -3.26070708349896    6.33650626966692
H          -5.01371831894003   -0.19018141416446   -1.70159171641209
H          -7.10408188559975    6.11260990507914   -2.24336199335831
H          -9.07749741247239    7.30248838418422    2.15368645375624
H          -7.88828703679963    5.17760978907402    1.86282787084762
H          -7.45897799110166   10.05722523361264   -3.39101592654246
H          -6.62655993568821    8.51141661593969   -3.20913223200398
H          -6.89229231693298   10.64163717915890   -1.03130675459607
H          -5.44100377396549   10.29759498939857   -1.97476545036803
H          -6.06567040520629    9.09447785621249   -0.84499597419022
H          -8.67849320372162    7.34113753486831   -3.87575050198601
H          -9.53280411249417    8.87835695545090   -4.03611441921207
H         -10.38833183995242    6.54050567406157   -2.26265959113301
H         -11.13695260868143    7.01957852898174   -3.78683979586083
H         -11.23952274208234    8.08255359045675   -2.38127463853485
H          -9.80226199696651   11.11590010907553   -2.78981602692698
H         -11.31721398011567   11.69901874461722    1.17513018262388
H         -10.27774424638242    9.59548079217175    1.91532282152017
H         -11.91834832069011   13.21144015334444   -0.42893109750857
H         -10.47929184276713   13.13195736398062   -3.11830617288757
H         -11.27942096763397   15.39156473981949   -3.28470056251718
H         -13.81623766554095   13.11537169185737   -1.75700943605661
H         -15.08760956151650   14.31464803528946   -2.04850748260766
H         -14.12382188956344   14.39652568857550   -0.58081765866360
H         -14.18672097898215   16.80941004765090   -1.84004375042542
H         -14.47179878957311   16.25000515739925   -3.48722092508739
H         -12.21264362385896   17.84715684012635   -2.51557247497473
H         -11.61679062826120   18.24755693305145   -4.68319272776801
H         -13.49161867991190   15.92819157564336   -5.42218670206506
H          -9.38381962632489   20.37856008104707   -7.28655994147869
H         -11.37075786149278   17.20248881978687  -11.40294303877370
H         -13.36145845038604   14.96397929209021  -10.74117749783612
H         -12.71055939019074   15.40793553986255  -12.39991369190562
