98
 SCF done       -205.466369023739          0.000545544623
C          -7.35804773144256   -0.02212083803228    1.89544756771306
C          -8.43748906072660   -0.25873028800525    2.70736212205764
C          -9.26168119362951   -1.39313773307461    2.58972695680275
N          -9.98167269126901   -2.28398888037065    2.49607659847002
C          -8.91063142283483    0.64924917168234    3.67715204927106
N          -9.35380795479689    1.34315984301450    4.47709206299002
C          -6.89660359053873   -0.89091890104365    0.82144235629106
C          -5.98053315767998   -0.16785979522090    0.01838419716493
C          -5.40357778648243   -0.70485376712051   -1.10685949175714
C          -5.74605689884432   -2.01658665306549   -1.45372184395630
C          -6.64697406760267   -2.73546129344827   -0.63422739330333
C          -7.22323014378893   -2.19608830275215    0.50979333115572
S          -6.92667108428504   -4.33329982907413   -1.25780397722395
C          -5.85344142255593   -4.03129241511394   -2.58300740383064
C          -5.30629190467091   -2.79701738177338   -2.56213037899410
C          -5.76871628844973    1.17445799386742    0.59756524225826
O          -4.98069509833183    2.00680670794711    0.21019336281937
C          -6.61462624174692    1.21458038896485    1.82316222143532
C          -6.53406670715270    2.19053895388955    2.77273521849342
C          -6.01087252718056    3.49207702442305    2.53242739361135
C          -5.31671616899131    4.21366736000131    3.53358583900148
C          -4.71166775563469    5.49172874462584    3.26911383310375
N          -4.01652050356542    6.11079584013146    4.22509482635856
C          -3.90296083686451    5.54510203349543    5.40896116848136
C          -4.51040926448529    4.27921570949859    5.67353712598205
N          -5.18511896417646    3.64667851696119    4.74454999608835
C          -4.38453260623245    3.69500213394736    6.96032723755295
N          -4.25300757274728    3.26007641725578    8.01145920275327
C          -3.17141003510527    6.21522770573500    6.41893353702367
N          -2.58278422866978    6.73974606461370    7.25053887011954
C          -4.80175427392384    6.12588937174093    1.98383294835795
C          -5.65183374065212    5.47239704191179    1.05963108112116
C          -6.22959276814114    4.17930444645777    1.32096897439100
N          -7.04267044419273    3.79386693378014    0.33551545186307
S          -7.04960366239237    4.90885000842774   -0.80442194721680
N          -6.05990480773072    5.96130045773861   -0.10892504494910
C          -4.05015995153674    7.28333644057385    1.74568151875722
C          -3.78620931671706    7.95596310205598    0.56669182963863
C          -2.85998050002160    9.02971031300259    0.48471202162932
C          -2.60047075998301    9.46205514301758   -0.78271954136445
C          -3.32115350496963    8.74707059821120   -1.76043843394692
S          -4.38252463549918    7.56848836964135   -1.02334954672286
C          -3.23520826903038    8.80207785107351   -3.14410610294582
C          -2.39735332361358    9.56629355859922   -3.98476898880190
C          -2.47238733304272    9.21813095704963   -5.30209583189232
C          -3.35997347712410    8.14392163447656   -5.56910537580256
S          -4.18068717307978    7.68399847399210   -4.08692911107770
C          -3.60330633418317    7.53816655558240   -6.78002124427801
C          -4.36169914998860    6.35616562872487   -6.92454625124064
C          -4.54179650187190    5.34025121470240   -5.98494743327881
C          -3.65335077899797    5.07825696348763   -4.92937295202414
N          -2.86260076214708    4.77154922679111   -4.15656092145765
C          -5.50552936158223    4.38895221418040   -6.40022995144978
C          -5.94979895675577    4.61233268608933   -7.69568955589048
S          -5.26998187549171    6.03315831226525   -8.40244718050909
S          -7.09496075681185    3.43167949603180   -8.26986942122678
C          -7.02865961113029    2.66458522565953   -6.71401860249782
C          -6.16884182899246    3.28089783794381   -5.81041798693744
C          -6.29400586963458    2.74056447199980   -4.51083293665004
C          -5.69708423094422    3.30023925915772   -3.37400511207240
N          -5.29941141061948    3.83180440631104   -2.43781147541541
C          -7.18494668570077    1.67589469163535   -4.45513622426977
S          -7.91575928221702    1.36007195640719   -6.02047420557377
C          -7.57866621780583    1.03906807032876   -3.24872367582765
C          -8.10071370316215   -0.18981348245718   -3.01952415189894
C          -8.17282205105851   -1.40453719134351   -3.80533760642457
C          -7.30541201163726   -1.76007570420542   -4.80587429064154
C          -7.33284182337492   -3.00264865643003   -5.47051618046944
N          -7.30830053378112   -3.99324731705324   -6.04939274211215
C          -6.19249519964625   -0.98289165396670   -5.18279332636124
N          -5.23947675948917   -0.41241057425229   -5.47425094395096
C          -9.10341111733281   -2.30240277744968   -3.13759659985816
C          -9.44507062404282   -1.74939156273346   -1.87321346478209
C          -8.79815500364698   -0.44222960235612   -1.72332909803148
O          -8.82812591047745    0.30826017511248   -0.77386785357704
C         -10.22453598138161   -2.42064198924299   -0.96090884003981
C         -10.68333322834019   -3.69301130243316   -1.30916968712584
C         -10.35957695949674   -4.22626829114048   -2.58211947993137
C          -9.57659540576055   -3.54688078828773   -3.50751493380419
S         -11.03421886026917   -5.80926315076572   -2.78595770148459
C         -11.71753887361109   -5.75101272744050   -1.19706136689672
C         -11.46287070880903   -4.59913618491659   -0.53885553206782
H          -4.71338816026180   -0.13059181931138   -1.70623142331427
H          -7.89189645960687   -2.78906696120241    1.11127841160652
H          -5.69843069207090   -4.80964323464490   -3.30461420257642
H          -4.60775082105269   -2.43528823512333   -3.29565557071474
H          -6.83819455016931    1.98414039971576    3.79163529859131
H          -3.53017726578822    7.65728503139805    2.62046936652592
H          -2.39079645189434    9.42767179288411    1.36746128661791
H          -1.90885049484233   10.24824596174298   -1.02794540773636
H          -1.75240244690312   10.33498963501654   -3.59806312643361
H          -1.88824629571828    9.66915945067372   -6.08455801181432
H          -3.22989356980689    8.01326575729015   -7.67646894768745
H          -7.50134574580106    1.66819214662221   -2.36295509663643
H         -10.45408046860476   -1.99313176161167    0.00264066966234
H          -9.35489226318137   -3.98992942112421   -4.46447973913017
H         -12.27651977794632   -6.59836398490036   -0.85049136993205
H         -11.79680731665256   -4.38098942923847    0.45896106495700
