97
 SCF done       -181.124754878927          0.000666560278
C          -3.49108611974833    0.35578972874645    4.08649192583620
C          -3.31589198548752   -0.89604596600932    3.55271733303753
C          -2.67363571200631   -1.95805452986465    4.22049405013184
N          -2.17219585574090   -2.86603886779147    4.71366648690303
C          -3.73390660747152   -1.29090151215752    2.26512922111097
N          -4.02235983592589   -1.69255978470515    1.22843890325639
C          -2.98432570955872    0.81282214352542    5.37420484969882
C          -3.29228675951587    2.18853833346577    5.51907810815248
C          -2.93997172781673    2.91275443936438    6.63221943182837
C          -2.24588420344804    2.25075725584665    7.64918935583576
C          -1.94427298374780    0.87671358545407    7.49669485226367
C          -2.30324081901641    0.14256801319795    6.37197334886740
S          -1.09152796888815    0.26456657021332    8.87870121004081
C          -1.14360788110701    1.82121699450627    9.63194686060683
C          -1.76844510520468    2.76069270496774    8.88960333191668
C          -4.03166814316714    2.65602570140683    4.33544836205431
O          -4.54391685599754    3.75198786283499    4.20316197756517
C          -4.13240951319522    1.47775774267581    3.43598621753260
C          -4.88151578590424    1.43974434200152    2.29256735473346
C          -5.29277082081867    2.59698165519091    1.58474963412994
C          -4.49984912235140    3.76774286231923    1.53407057041267
C          -5.02793478714410    5.00880928294887    1.03557542975171
N          -4.25164314190091    6.10151423957025    1.02719503722551
C          -3.03048192181745    6.02756674555307    1.49898132366512
C          -2.48577237733108    4.77534304713675    1.92623746696277
N          -3.21691082813597    3.68869136989016    1.91046918462539
C          -1.13781402084661    4.69055634530876    2.35195139342023
N          -0.05411004860350    4.66113253343062    2.72307573280457
C          -2.24644419586750    7.20543516458419    1.54376947442498
N          -1.60111410821398    8.15030230319673    1.61058955774320
C          -6.34527940668407    5.11325701705437    0.52287549847270
C          -7.02219312449043    3.89062369882814    0.33024012453884
C          -6.50739617737624    2.65000027875071    0.87096941648600
N          -7.34662880445712    1.63571628498222    0.67868775853750
S          -8.63578629147063    2.16731281759192   -0.12171002283447
N          -8.21580120716876    3.71399581204053   -0.24136921749780
C          -6.95323152745117    6.39130145067770    0.25541971823804
C          -6.73134221109478    7.51925823463217    1.12068473876937
C          -6.17456114465175    7.55415631501083    2.37244350613626
S          -6.16762808951647    9.12630399442550    3.03890400371009
C          -6.92957772896472    9.78063122854964    1.66295040213237
C          -7.20574949238824    8.81492466368990    0.71860818783555
C          -7.93933799457393    8.97663564799546   -0.49387132636638
N          -8.13321636594813   10.21140159291571   -0.99345537454591
C          -8.36492583097936    7.81566300973896   -1.17282269557363
C          -7.80409754922933    6.57125371034796   -0.81168610394138
C          -9.32392264716264    7.83214726712423   -2.23909206869439
C         -10.44662678251811    8.60563629641322   -2.34139369435409
C         -11.41737621834185    8.53703374133826   -3.37868042382719
C         -12.50887021875070    9.32769565580632   -3.19150383576252
C         -12.48272621809472   10.07119441227964   -1.99135329400690
S         -11.00413409582475    9.74104187325443   -1.10843252336115
C         -13.42276814337152   10.94403648042773   -1.48359359801192
C         -14.66542985430957   11.32924087980238   -2.03416105286905
C         -15.36013848776702   12.20659052159280   -1.25905532228460
C         -14.71725056462984   12.56751184466436   -0.04674971876869
S         -13.17091371888478   11.73995180793904    0.05453997908166
C         -15.21832355609179   13.41551299593911    0.90616758017729
C         -14.63604767693948   13.79011907370177    2.13636306711455
C         -13.41630672908143   13.41713292925898    2.70201749378798
C         -13.29016239353173   14.04846150357992    3.96616759540755
C         -12.29374108237697   14.00034260662892    4.91302847952933
C         -12.47443266629244   14.74643178240519    6.09068828052528
C         -11.67813146839906   14.89820648229898    7.21356211691057
C         -12.33473326279220   15.77494381330123    8.13831356287454
C         -13.53683944148550   16.16254091656279    7.58023042026428
C         -13.67269259558918   15.54314395729199    6.29628882462282
C         -14.66529967145982   15.59501382017825    5.35817430151891
C         -14.48883981150845   14.84311595268294    4.17337663398376
C         -15.28927275277585   14.67955039816457    3.06358462225611
C         -11.84421560073386   16.18948258857563    9.43046028960820
C         -10.68988156684441   15.81589814214756    9.97621201575706
H          -3.18883840160709    3.95963445021126    6.71365398867091
H          -2.05478822788277   -0.90353294659688    6.30463013875840
H          -0.69552345684163    1.93710608628756   10.59964339391171
H          -1.89574796342334    3.78357863209665    9.19496615580631
H          -5.23636133844689    0.49444922691361    1.90303500423008
H          -5.78814076234305    6.74439095647495    2.95761791139990
H          -7.18289682434391   10.82211362946461    1.65292006746181
H          -7.84404706002318   11.02028078384731   -0.47582733982108
H          -8.63988971297232   10.33997261477555   -1.85068777243380
H          -8.04956617995991    5.71669116194572   -1.42223734368568
H          -9.22668950845158    7.04490732797424   -2.97621685674611
H         -11.27091056587312    7.89668245855201   -4.23062842784661
H         -13.33410114633389    9.39273275375330   -3.87782064369210
H         -15.00942675907969   10.94971093779684   -2.97960964572823
H         -16.32467945626511   12.60889489752559   -1.51563419316832
H         -16.18985460666537   13.84401943351691    0.69051273206096
H         -12.68096945773127   12.76274368968713    2.27599044790321
H         -11.40134654813062   13.40854797329745    4.76653789009366
H         -10.72171617071214   14.43432605499160    7.37059872710842
H         -14.26102126975427   16.81934526867145    8.02658918805322
H         -15.56022400912706   16.18389307408586    5.50355636449501
H         -16.25171452300065   15.13032577011485    2.89695037608861
H         -12.49956580890607   16.86036222620731    9.97218558557379
H         -10.00602399113490   15.15068689562170    9.47759227650877
H         -10.38827113305954   16.16504283543401   10.94843564283503
