108
 SCF done       -202.958633281052          0.000693635063
C         -17.71271370574009   -4.64544036618238   -3.33324149038939
C         -16.71854866853366   -5.58708736040416   -3.18422191550974
C         -16.75787824685514   -6.87640469225601   -3.74937531246583
N         -16.71732620824944   -7.94232232325730   -4.17750119201010
C         -15.52354033697640   -5.42255709249018   -2.45778684107470
N         -14.52287978130735   -5.38468577995059   -1.89246674888390
C         -18.94493469471095   -4.84064418092701   -4.09469509622930
C         -19.71968974139353   -3.65709230071235   -4.01333124666565
C         -20.93842682451825   -3.52555134762545   -4.63148777454739
C         -21.41836176954746   -4.61344528524034   -5.36852407597037
C         -20.63854567672245   -5.79026472587011   -5.44447230544262
C         -19.40447250143309   -5.92412665869303   -4.81693864413386
S         -21.42342032705657   -7.00274555844236   -6.40819372588057
C         -22.76133700713385   -5.94362640164550   -6.69496245074626
C         -22.63345649006100   -4.73794689721812   -6.09989534994445
C         -19.00223772497550   -2.66183944180266   -3.19268608042614
O         -19.38822207244911   -1.54031651833124   -2.92084833893280
C         -17.74114209621782   -3.31432123791058   -2.78663646955279
C         -16.76307048474823   -2.71747485939699   -2.01463210201399
C         -16.82324173672225   -1.42302282442832   -1.51230616842930
C         -15.81273561044299   -0.86520838689226   -0.74886716326693
C         -15.78269926322649    0.43526037253977   -0.20332115225694
C         -14.65029078831600    0.71497104511724    0.51057480343880
C         -13.73784910699074   -0.35508139217452    0.56001986700943
S         -14.35120347403587   -1.72898823693298   -0.32619431370896
C         -12.50666173723132   -0.41124723593198    1.20208768581504
C         -11.86673592887589    0.58517141234421    1.96273646444787
C         -10.66170345174329    0.19208437693290    2.47331011490635
C         -10.29598747683754   -1.13081268627977    2.14083523769322
S         -11.53366834044947   -1.85897984961540    1.14330223609894
C          -9.14701972211000   -1.77853301025196    2.55116583248149
C          -8.76751203535311   -3.08610550152099    2.25844253365444
S          -9.69824194105364   -4.14344005432759    1.23147737240929
C          -8.57923717508254   -5.47931648518797    1.44827069219037
C          -7.52305324318289   -5.08144019998407    2.28321161537521
C          -7.62754176770958   -3.76772828967015    2.71763311611366
C          -6.54268550156378   -3.21665678857346    3.58014792620833
C          -6.21498860775647   -4.19366515599958    4.72788989995652
C          -4.84011948135894   -3.83980988900966    5.27710151684682
F          -4.76067664830988   -2.55025527508986    5.64751960088188
F          -4.51932274402292   -4.56350826264516    6.35869471064560
F          -3.86083661790350   -4.03618272810482    4.38130136076236
C          -6.25215136830885   -5.67354881000935    4.29951875850634
C          -6.33798355264835   -5.84581852262706    2.77742837031383
C          -8.90793370412365   -6.65753826583944    0.76895080662899
C          -8.30882210911865   -7.89445218767086    0.83505700033175
C          -8.74476703760566   -8.98316997441751    0.08726946434962
C          -8.21040967954709  -10.25446751882797    0.19421888859751
C          -8.57402964215046  -11.40091909094116   -0.53829178981609
C          -7.88525808559123  -12.53030273699194   -0.18922249942295
C          -6.95288377881393  -12.32815576171837    0.84518679078785
S          -6.95138630944381  -10.65909351370466    1.34664714244311
C          -6.13867197417511  -13.27070262389893    1.46266456468267
C          -6.01489103400279  -14.63945134560884    1.16191914077219
C          -5.15365851815002  -15.30663339088741    1.98821691650728
C          -4.56326162993272  -14.49565241346280    2.97905523902852
S          -5.12418201889455  -12.84911957258239    2.82100737810692
C          -3.70640014864286  -14.90780410343859    3.98408897868488
C          -3.17244711151525  -14.04911487264604    4.93678550850614
C          -2.41083744194415  -14.37025961163625    6.04049172472361
C          -2.15876513498504  -15.61876745090738    6.70305053748431
C          -2.96678375307303  -16.73449057515019    6.70570180438049
C          -2.66950806304042  -17.91971007259615    7.40440311610313
N          -2.47018624337126  -18.92156646892973    7.93084272861027
C          -4.24265030812836  -16.79530752656443    6.11361364704009
N          -5.31014927419423  -16.89016018490909    5.69873198427420
C          -0.99890241912772  -15.42579952707116    7.57348689643607
C          -0.67442712732623  -14.04520742883726    7.59407674145334
C          -1.58205651372453  -13.32338115843109    6.68028458591996
O          -1.62266434554690  -12.13022235128457    6.46379018717544
C           0.34488857658050  -13.53925457033910    8.36217684950982
C           1.08625697954116  -14.43665053640413    9.13853555935835
C           0.76444197397639  -15.81285617202067    9.09849664819849
C          -0.27317150684701  -16.32580981472631    8.32671530886856
S           1.81561812812240  -16.73442712627683   10.12759518653607
C           2.65621775250307  -15.29682097704754   10.59746509034248
C           2.17932214997761  -14.17655346389564   10.01316873054447
H         -21.50409133574182   -2.61027267479272   -4.54976158208917
H         -18.84981329562793   -6.84307074753193   -4.90669997429391
H         -23.57261477804901   -6.29669540487290   -7.30143048686426
H         -23.36469276333585   -3.95267286424354   -6.16700826401119
H         -15.87461355557463   -3.29084078471850   -1.77875331441678
H         -17.69270844106400   -0.81756139036518   -1.72395388267240
H         -16.59489706749487    1.12404224898165   -0.35298290152110
H         -14.45742321727251    1.65485049391379    0.99584343935099
H         -12.30205724914312    1.55547988504388    2.11895778317122
H         -10.02893674340002    0.81439770634480    3.08128803825350
H          -8.48006416280723   -1.20352582672875    3.17989447503868
H          -6.80149754067729   -2.24239809147825    3.99239759553503
H          -5.64587262812276   -3.09047268817017    2.96343709950812
H          -6.91765312431549   -4.02919687305882    5.55019985187085
H          -7.12377907243579   -6.15209807470209    4.74764112155147
H          -5.36615964861465   -6.19088721901230    4.67026212641488
H          -6.39065683087904   -6.90423424542921    2.54454158264025
H          -5.43267105877565   -5.44338259519400    2.31359415404897
H          -9.77425143689748   -6.57396392624935    0.12253950086429
H          -7.47540948798344   -8.06841177435050    1.49843110924727
H          -9.55213920180922   -8.84314056668305   -0.61925457131228
H          -9.33297019029722  -11.36448838579890   -1.29960727038977
H          -8.03698795918937  -13.49383624280960   -0.64073936439789
H          -6.55497267891424  -15.09953953119192    0.35422559355975
H          -4.93909902075948  -16.35821252191267    1.92383634268861
H          -3.44861081018548  -15.95678244773198    3.99748104036089
H          -3.29829365090731  -12.98261829904160    4.77084248248307
H           0.56302702237568  -12.48253665914642    8.36628624221094
H          -0.47849300477428  -17.38349607677346    8.32712470920353
H           3.46793825905284  -15.38305420286145   11.29337952836784
H           2.57593570564509  -13.19216242332284   10.18484318148589
