103
 SCF done       -187.019849061723          0.000780859251
C          -3.56355700176171   -1.06189017872505    0.40508072222958
C          -4.06439621751718   -2.27026648378509    0.82689817495406
C          -3.27006856530252   -3.40376324153532    1.08206086695905
N          -2.66599495359318   -4.35482477414461    1.30771551555946
C          -5.42487259519840   -2.51672836588652    1.10039831451553
N          -6.50853808388010   -2.79267630922876    1.36293228178631
C          -2.15280711262954   -0.75009275299125    0.19268668554631
C          -2.04445005687941    0.62864415336614   -0.11242511523413
C          -0.84368028386950    1.23599113035234   -0.38354682537696
C           0.31171627864404    0.45028225168177   -0.32450107300414
C           0.19597551709926   -0.92196586289983   -0.00918595619939
C          -1.02375219533759   -1.54244329063855    0.24379362477075
S           1.75080444060666   -1.69140017264162    0.01831085873825
C           2.52671265175147   -0.19539679372489   -0.37190751687288
C           1.66708571794785    0.83487567105962   -0.52492176673908
C          -3.38352262067822    1.24678513858325   -0.07960039007372
O          -3.62481659347363    2.41722782241053   -0.31935890325180
C          -4.32490139517549    0.14431418478391    0.20268104181232
C          -5.69153169963025    0.24054049284551    0.05322880689956
C          -6.39697230723534    1.45668786239895    0.10566941204270
C          -5.95786033894220    2.54814647286928    0.89260417674624
C          -6.49456600567003    3.86714793869072    0.70130437452271
N          -5.86631882989388    4.88926583476091    1.26174928098791
C          -4.86563684831227    4.69464589292759    2.09894138497357
C          -4.57194660424990    3.36524176116674    2.52008979305944
N          -5.09385216073990    2.33985569581972    1.88692076087972
C          -3.72878114531984    3.12854808498763    3.63190396079236
N          -3.03397248689778    2.96421987671540    4.52917406752267
C          -4.11864797272086    5.78867795965153    2.57795365931973
N          -3.45376633084853    6.63496725887843    2.97673672213907
C          -7.65793070906297    4.13954682671923   -0.08886909686020
C          -8.22768825574123    2.98587874185193   -0.70405684807293
C          -7.59418142162485    1.68398470085347   -0.61734287037280
N          -8.22091693273450    0.77191137837562   -1.34735821932122
S          -9.49195007816920    1.45322180404874   -2.06848536041025
N          -9.28780428509668    2.94891473877533   -1.50162811988426
C          -8.03954744651666    5.48051553889170   -0.27723971350048
S          -6.84893929410210    6.71085183080464    0.08590541315762
C          -7.86045529725845    7.97076373660234   -0.57786670509605
C          -9.12856577836795    7.44738849786244   -0.92649610812974
C          -9.22813083664614    6.08038689690864   -0.75987868827404
C         -10.52689639738976    5.37341142299683   -0.97519963671756
C         -11.68946204387905    6.35768735368332   -0.91355955421314
C         -11.45076294226148    7.50234479368550   -1.89399661234568
O         -12.62833184397754    8.28387858286738   -1.94252259095613
C         -12.69083068275332    9.19441354496428   -3.00933231542485
C         -10.23556924113988    8.31831018881874   -1.43026952688203
C          -7.43639138239087    9.28455267039930   -0.67876581442788
C          -6.14728096824418    9.74706250724869   -0.42250584538336
C          -5.69879658447237   11.07603303555821   -0.52372489763766
C          -4.36114058724827   11.24114958130363   -0.25662220660348
C          -3.70834874590470   10.04482359970615    0.06171735827223
S          -4.82921070453255    8.70493503260382    0.03265491079299
C          -2.36395959067546    9.80268809078572    0.35640151466966
C          -1.28527820827385   10.69974550491148    0.42867234690207
C          -0.09369702105925   10.09381865799175    0.72739907373833
C          -0.18049419695658    8.69729771524229    0.91435146269207
S          -1.83785339993975    8.18188940768950    0.67968873879805
C           0.87101503571622    7.85455480364316    1.22118863396708
C           0.83554686101220    6.47884170732607    1.48315799935152
C          -0.31021066893716    5.62219761892678    1.59151471090046
C           0.11828105024696    4.34572983136496    1.90405071411126
C          -0.60900242183366    3.16786082932749    2.15202491235117
C           0.09894045834283    2.04531929575289    2.50085794094171
C          -0.31905234898806    0.73118822622794    2.83414300191303
C           0.80698130743049   -0.05593461664804    3.07116605804527
C           1.95611012936498    0.75750678470946    2.90183796838509
C           1.55287281494696    2.05369289091073    2.56166096488680
C           2.27956099928785    3.21412139061312    2.30954273451282
C           1.57010663447919    4.36677629481713    1.99204182885367
C           1.97847016170188    5.68306892573108    1.73150409470251
C           0.76690675269058   -1.45808749570063    3.41170162518933
C           1.82888639693321   -2.23738331346893    3.59721200097520
H          -0.79338504147804    2.28689017534186   -0.62427107517421
H          -1.06044518110670   -2.59589679066532    0.46629044973809
H           3.59489677528948   -0.18245441531635   -0.46904947739173
H           1.96405863789971    1.83984152853002   -0.76569485832879
H          -6.26863922182861   -0.64194718827299   -0.19166238958386
H         -10.65151674126519    4.59470727874819   -0.22266581586206
H         -10.51443101359402    4.87677550777994   -1.94728753014302
H         -11.78988973912648    6.77255522473134    0.09033051438358
H         -12.62323046340600    5.85714000484014   -1.16766051201721
H         -11.24885258891051    7.08464222136582   -2.89549607097631
H         -13.69553918965300    9.61262103777391   -2.99439449351487
H         -12.52073556292003    8.69274508029134   -3.97023615527492
H         -11.96371715644407   10.00766984688191   -2.90223507756210
H         -10.56341373840850    8.98607748779325   -0.62587703638155
H          -9.86337292092394    8.94200123140342   -2.24763543739039
H          -8.15103528204296   10.02635149196494   -1.01049296110859
H          -6.36365409503116   11.87853446705001   -0.79094056000600
H          -3.85148087008663   12.18739569422749   -0.29156252683912
H          -1.40379850556332   11.75523369180305    0.26203744657669
H           0.84087736519847   10.61798946029588    0.82648726014802
H           1.84698464512332    8.32375135090494    1.27221970641847
H          -1.33586744371220    5.92104519762534    1.49455592150072
H          -1.68427633267537    3.15875413708005    2.06553812268895
H          -1.34130121908233    0.40728654815545    2.90032044121998
H           2.97408316995642    0.43352828933614    3.01709212955016
H           3.35885174834908    3.22043833623726    2.37338502277110
H           2.99334250426632    6.03712643844523    1.72096216569252
H          -0.22756037900690   -1.87585277507379    3.50384393526665
H           2.83629542538627   -1.86750665538072    3.51036083818458
H           1.72303992859328   -3.27963071803687    3.84091580509491
