111
 SCF done       -209.346535937095          0.000794102593
C         -12.67200802887714    1.23870193272322   -8.64678822870646
C         -12.68234030121326    0.17486458788570   -7.78311163395619
C         -12.96357845593159   -1.15296489795645   -8.16791015643536
N         -13.17413241011409   -2.25224456715571   -8.42243304694654
C         -12.44116217756749    0.25721977861988   -6.39553549961869
N         -12.27428796214402    0.25072864465266   -5.25953334681240
C         -13.01329068166312    1.19345379345802  -10.06227173201253
C         -12.98506911810429    2.51428720195342  -10.57914715485389
C         -13.27680499215589    2.80297796734029  -11.89042971224947
C         -13.61615336559068    1.73972039080985  -12.73256453194408
C         -13.63689970667940    0.42406984209106  -12.20984009712069
C         -13.33985110327282    0.13135000938070  -10.88377138165402
S         -14.07772290377578   -0.72918762311611  -13.42891460595180
C         -14.23064478566456    0.53240599885472  -14.60208834439681
C         -13.96453277548549    1.76303238658900  -14.11214366122817
C         -12.61020998693353    3.44722885648138   -9.50864675285562
O         -12.43619850259683    4.64950876243410   -9.61221707423766
C         -12.39896138575604    2.62391811647414   -8.30453622088624
C         -11.83426193319569    3.06257924118304   -7.13793037161845
C         -11.64811100558931    4.38531866008905   -6.69030575551482
S         -10.35441799680727    4.65432263693938   -5.54232402294137
C         -10.71822251233007    6.34014310060422   -5.41469712467218
C         -11.82422182894978    6.65876260039854   -6.20150688552834
C         -12.35236540125960    5.57254021717477   -6.91149305170450
S         -13.86406788183770    5.57956173811151   -7.78717717845211
C         -14.73217511085813    7.04246631088487   -7.26523342229215
O         -15.92934455078928    7.03525329280621   -7.33372608724290
C         -13.99583195423371    8.32737907404998   -6.96312519992562
O         -14.52363140543813    9.38780554416504   -7.15870538031014
S         -12.35734509315533    8.33065050736351   -6.31163074262162
C          -9.97631896973189    7.24010606753960   -4.61604181862918
C          -8.92690865435260    6.89239347789300   -3.83097482271377
C          -8.20179843390016    7.81857275661675   -3.04677599514137
O          -8.51420314702751    9.14648180199957   -3.05276019819443
C          -7.68343592946362    9.79890529033094   -2.23012959521597
C          -6.77679798117361    8.90349219113341   -1.66725573423258
C          -7.12541275506128    7.61883776501205   -2.18677111381949
O          -6.52820383285871    6.46832864707850   -1.91516572284683
C          -5.57452517207259    9.04861677748747   -0.84416140119667
O          -5.01081676282234    8.06945770398339   -0.40370788295772
O          -5.07458715866401   10.26898074479298   -0.63855130852446
C          -7.87611647729804   11.22923052246537   -2.08106174118680
C          -8.34009171875107   11.95808125829132   -3.18564548722550
C          -8.50120818470356   13.31884826559898   -3.07771426809148
C          -8.26686286930008   13.95757362989520   -1.84612434031897
C          -7.85371236092237   13.23509838879205   -0.73563551980176
C          -7.65032042931964   11.87449146896733   -0.85868716132014
C          -8.54953767419526   15.36716489440193   -1.99585757531261
C          -8.95587734017553   15.60423944916720   -3.32045407963946
C          -8.98127560392422   14.31301522999471   -4.11504067627425
C          -8.00662509739099   14.46267333931125   -5.30224495322602
C          -7.84879431796099   13.24703027979139   -6.20641824427717
C         -10.41247456974409   13.90197694521382   -4.52596332999636
C         -11.11463840905054   14.82672983771274   -5.51101599953089
C          -9.19599826452345   16.89139154207309   -3.73906945260079
C          -9.09184549979210   17.95602473029982   -2.82974852206421
C          -8.72472029686340   17.69223434857462   -1.50322237952277
C          -8.44059499738440   16.41015810742810   -1.08568116402462
C          -9.30141637373454   19.29801448472149   -3.31359672191142
C          -9.48526066345592   20.40401172433326   -2.56235589519203
C          -9.67323425240317   21.71545007998539   -3.08869875135615
C          -9.20439630782258   22.26180059837377   -4.24018048794969
C          -8.21084922833517   21.83882971287135   -5.20966792154888
C          -7.10728965510851   21.06171624906911   -4.97295453933261
C          -6.13404260532179   20.75877180232089   -5.94709545481001
N          -5.32526206617140   20.45999580686734   -6.70507820984951
C          -6.76297834243784   20.52550879778470   -3.71586355058247
N          -6.39980537485490   20.09232190217291   -2.71696846480025
C          -8.44874323625715   22.60073363969153   -6.43082518385155
C          -9.38874802142571   23.62720365727377   -6.15416709651685
C          -9.83596098853641   23.51156636894108   -4.75511148074849
O         -10.58981417339451   24.23880099272615   -4.15009631287532
C          -9.77903375673573   24.54319974002249   -7.10149730074907
C          -9.22691545994632   24.43571762620091   -8.38141156604482
C          -8.30366160740579   23.39661250668902   -8.65202628499080
C          -7.90186415638719   22.47432882984760   -7.69333052535705
S          -7.76217102008945   23.45001170191420  -10.29969662760805
C          -8.74936673662147   24.83712734591022  -10.60457655861194
C          -9.45714644996737   25.24577634374909   -9.52910707469632
H         -13.24934603354226    3.81887582648458  -12.25262900555602
H         -13.36749938143003   -0.88722217155015  -10.53434116041683
H         -14.51542627771841    0.26976119448024  -15.60237340897736
H         -14.00954145377905    2.66565997227495  -14.69411771816590
H         -11.41563323179182    2.31643355411731   -6.47288831484284
H         -10.29350254891452    8.27343725319464   -4.64832149117694
H          -8.59147593451643    5.86714621186715   -3.76846900972199
H          -5.80813871186118    6.65439619165272   -1.26829903506993
H          -5.59416315395031   10.97258103909335   -1.05598667291794
H          -8.55407901268510   11.42850477991019   -4.09982681492782
H          -7.70408704978539   13.72291657305249    0.21480273054783
H          -7.38167704305168   11.29649132584188    0.01367624556405
H          -7.02831332104012   14.72938782314081   -4.89311675269640
H          -8.34318788180536   15.30731657571930   -5.90486680740795
H          -7.37657407855737   12.42257240800868   -5.68019117019920
H          -7.21256182702443   13.51090081446080   -7.04856702093000
H          -8.80575885990535   12.91545408787818   -6.59971255278376
H         -11.01120789511393   13.84120901365172   -3.61306123392977
H         -10.36776170750325   12.89776567881505   -4.94999380598904
H         -11.28894642307070   15.80508703267643   -5.07204826108174
H         -12.08039998216599   14.40041737634881   -5.77338719414776
H         -10.54016132434927   14.94469051145797   -6.42577731385424
H          -9.45569122206799   17.10664407279053   -4.76496067630663
H          -8.61675726666183   18.51068559062441   -0.81024458140996
H          -8.12348218313397   16.22288623519099   -0.07117589940056
H          -9.34124065000012   19.39799695564930   -4.39271297178762
H          -9.58449130836770   20.31508273479431   -1.48960568236985
H         -10.32339471265818   22.37090432200440   -2.51567679447593
H         -10.48806461584558   25.31994492972215   -6.86075266907334
H          -7.20017345977470   21.69687175707255   -7.94678883611148
H          -8.73816127626576   25.26721561797960  -11.58719382972878
H         -10.12310146808526   26.08952523460394   -9.53176739082090
