120
 SCF done       -190.962727714128          0.000930293731
C          -3.87345919389170    1.00531711612949   -4.47710353044426
C          -3.29672459147118   -0.24309620379984   -4.43453937532396
C          -2.60993968227456   -0.83497275048689   -5.51301212273269
N          -2.03538459438981   -1.37714177891680   -6.34739988986856
C          -3.30148382506158   -1.11537360572764   -3.32926325883776
N          -3.25903717945843   -1.88429339965840   -2.47448861755506
C          -3.86381764779978    1.89362909182690   -5.63719261511444
C          -4.56593966853038    3.07897257851094   -5.30432585275055
C          -4.73396726943355    4.11537145623295   -6.18872602244380
C          -4.18092716852901    3.97863090448678   -7.46652212059071
C          -3.48099635244609    2.79362971641092   -7.79012104131994
C          -3.31205365797124    1.74321528171408   -6.89400471488322
S          -2.88414124026751    2.84178925620866   -9.41976902659332
C          -3.56084378985973    4.41778398079734   -9.64704251864670
C          -4.20691152793359    4.89075311120938   -8.55926908015607
C          -5.04043880059234    2.97940984200365   -3.91307740005498
O          -5.68185479234212    3.82456420731634   -3.30740017350300
C          -4.58996722161865    1.67970258187241   -3.42004058923354
C          -4.80400008802002    1.17836459568785   -2.15233451073358
C          -5.46326693219595    1.72534430158806   -1.05858964371221
C          -5.58207278280519    1.06251810076098    0.19004357603413
C          -6.29540502491104    1.82096698426963    1.16240316833460
N          -6.51741210488207    1.37327950882212    2.40860648741773
C          -6.05420680486582    0.19318157572060    2.72374705274305
C          -5.34052459335427   -0.63498468723822    1.84199514073034
C          -5.09901990500943   -0.20181206938627    0.56213899989023
C          -6.73127409238455    3.07038409981752    0.65940860408750
S          -6.25222940889156    3.27744326607245   -0.98058626036310
C          -7.47934583865485    4.08771362788464    1.33641057754909
C          -7.85496930661612    3.93628612745730    2.68446267266488
C          -8.59213835736528    4.92069761210939    3.28910352775634
C          -8.97117654859682    6.07932342621719    2.58650659292941
C          -8.58993433863948    6.24684269835492    1.25885943481236
C          -7.85300903966510    5.25771194857681    0.64892243085707
C          -9.77506745111333    6.90151052354847    3.45588711292638
C          -9.89850006902577    6.25573774192942    4.70251604901694
C          -9.08119446007789    4.98344181302687    4.72063148889459
C          -9.91266109202508    3.75169554286497    5.10413076305159
C         -11.08357527794759    3.52520342911273    4.15475442603893
C          -7.82566938757918    5.12537092388612    5.61406655871418
C          -8.08896234289769    5.37871340234440    7.09260896757141
C         -10.70446396406812    6.78070446169190    5.68047991839847
C         -11.38136347590160    7.99328042893296    5.45660023151984
C         -11.21113985608766    8.64105508766879    4.22098779775542
C         -10.42709973240782    8.10641540313357    3.22302456901652
C         -12.25318768296717    8.58931079195359    6.42898834867023
C         -12.52024283607471    8.12366714839784    7.67355771587625
C         -13.41054763667053    8.73187340861478    8.58423129588183
S         -14.28734162563634   10.17650022088455    8.20011774098105
C         -15.07708595178360   10.24013017320197    9.74812027467410
C         -14.70289454505499    9.13434162654451   10.52910141353620
C         -13.74880209829418    8.29472463343009    9.87674873511449
C         -13.26186622403888    7.15765085447536   10.53995218806520
C         -13.71400836902455    6.82146024390612   11.79419769770528
C         -13.18037167983603    5.64607993531285   12.47970054326865
C         -12.78760130881538    4.53099301951290   11.87819072311272
C         -14.71249431713882    7.62380189166008   12.42134109664660
C         -15.26576694767933    7.22450212457550   13.75591913260823
C         -15.18750525961129    8.74262527540786   11.79264390517131
C         -15.93525111303919   11.34111846197758    9.98745617645181
C         -16.38414698697943   11.78864081865287   11.18648177676139
C         -17.26805627146276   12.89138867067529   11.36799885710040
C         -17.70433427113313   13.37050463133607   12.59505054191557
C         -18.59229074481319   14.46384574383325   12.37530914700593
C         -19.29176311126023   15.26520865769454   13.24100460510486
C         -20.10769814994618   16.27257442885541   12.68752290456112
C         -20.92598830553748   17.21903280015676   13.27855111501828
C         -21.54388417556207   18.01020958011604   12.25341843985639
C         -21.10014558553236   17.54648029526247   11.03223166425484
C         -20.19804099220239   16.45480154887399   11.25131134449645
C         -19.50064387656676   15.65797492952338   10.38596408602529
C         -18.68564095918296   14.64483415865917   10.93880755938688
C         -17.88261482381838   13.69177841007273   10.34353400848110
C         -22.46978799863904   19.10002626234536   12.44527122648040
C         -22.91795738876044   19.53973401286840   13.61813899502001
H          -5.27387405173550    5.00498893783223   -5.90341790047772
H          -2.77049722650826    0.86110690867276   -7.19171382688265
H          -3.43143666762690    4.89779087627263  -10.59757890640824
H          -4.69048072379280    5.85005084954719   -8.51560250730886
H          -4.39298043222646    0.19680548412886   -1.96014447971040
H          -6.25486307670029   -0.13116190985697    3.73680306847244
H          -4.99069298414236   -1.59909142326957    2.17509994465159
H          -4.55335352073849   -0.82125814641141   -0.13451001755403
H          -7.56270068681095    3.04046711723140    3.20695278756490
H          -8.87162040950127    7.13477424090317    0.71308504106454
H          -7.55643669669492    5.37200367875351   -0.38361076134329
H         -10.29667660143410    3.87870908920587    6.11723843859341
H          -9.26318936915604    2.87423754499136    5.09586983170441
H         -11.74508363958588    4.38912211546243    4.14892929085745
H         -11.65655421678085    2.65467616349901    4.46620133328117
H         -10.72826198779704    3.35830893509841    3.14057057291978
H          -7.22676030627082    5.95077327668759    5.21994978427302
H          -7.23848650367870    4.21100544850705    5.50466084793594
H          -8.60183526385762    6.32566128514968    7.23869905814112
H          -7.14057901380970    5.42399626473790    7.62399735011825
H          -8.68208660215362    4.58131038863784    7.53273203068716
H         -10.84050115472068    6.25712962705393    6.61321243784007
H         -11.72617584265569    9.57622277780511    4.05266004002550
H         -10.32923201006604    8.60934253767593    2.27240823519943
H         -12.74669649417766    9.50287976206314    6.11827765085805
H         -12.04187008851532    7.22275401579433    8.03007783817557
H         -12.50939618031607    6.54684179755862   10.06599971450839
H         -13.11777694148266    5.71502415937602   13.55749399375458
H         -12.86650627740092    4.39546795237306   10.81230318881081
H         -12.39183502830646    3.69853671576334   12.43445721607092
H         -14.50633544489987    7.32352459485496   14.53216823352452
H         -15.59797246890233    6.18751480115707   13.74023822234118
H         -16.10912855716695    7.85628517679452   14.02408110873363
H         -15.97115911505298    9.31585862220864   12.26087962970389
H         -16.20798326595911   11.89436355102654    9.09764498428965
H         -16.04844389301251   11.31616509397056   12.09769297235467
H         -17.42533233830867   12.98494691011683   13.55870975174886
H         -19.22954066296820   15.13709130627651   14.31270280386674
H         -21.07780621608590   17.34588573550359   14.33490848593026
H         -21.37895987214220   17.93029689744506   10.06769269230962
H         -19.56294685647556   15.78548469287097    9.31403667600205
H         -17.74049445297299   13.56376106760015    9.28582327747523
H         -22.80773989592191   19.57515699463267   11.53232007007893
H         -22.61194993822296   19.10080594822844   14.55228997049532
H         -23.61031530622108   20.36106611647000   13.68430878229327
