114
 SCF done       -213.310477170019          0.001434989818
C          -2.55354425215519   -1.17599719498860    0.56173896468010
C          -2.90341196316107   -2.24178913959845    1.34949346522911
C          -2.48613862242450   -3.56943361086869    1.11741446502421
N          -2.17636091534730   -4.66792718966633    0.99331191376314
C          -3.72385735579160   -2.17844732016432    2.49549100667363
N          -4.39165776605032   -2.22518411052051    3.42891911486083
C          -1.75855968852471   -1.24332504715161   -0.65711064617677
C          -1.64714315293106    0.05984208915048   -1.20480842572928
C          -0.96267236531521    0.31878545276496   -2.36819888751094
C          -0.36412333283132   -0.75863670517811   -3.02719804620121
C          -0.47518805474817   -2.05589437729119   -2.47053093240386
C          -1.16380390919521   -2.31792718461061   -1.29235219787559
S           0.35186564701522   -3.22988570377100   -3.44455784688906
C           0.82615920906169   -2.00126761268988   -4.56666619723839
C           0.39041420502861   -0.76664647620386   -4.23399040277108
C          -2.33517417732384    1.02108947177219   -0.33038656918061
O          -2.27941922537996    2.23154461502327   -0.40879782274132
C          -2.96836588585684    0.20384798475067    0.74397882967445
C          -3.69997974786489    0.70744742224266    1.77500777315436
C          -4.31264699330971    1.99448049558881    1.77994242028798
C          -4.82726690040688    2.59514834449358    0.61187641134589
C          -5.37399024844041    3.93024099302859    0.61922188706203
N          -5.64126842030850    4.52376882831659   -0.55425231435440
C          -5.49541721066095    3.86066197816478   -1.67128898624216
C          -5.18924591170834    2.45740416143713   -1.64407840774088
N          -4.86524006598682    1.87764750704830   -0.52008768885871
C          -5.23120141216663    1.68375785310375   -2.82942751414985
N          -5.24045241381889    1.08718765670024   -3.80770746026505
C          -5.71302946248053    4.53303107979028   -2.89818214849617
N          -5.90154943289569    5.05624178799078   -3.90007154427158
C          -5.55056564772456    4.66471621225661    1.81515789299910
C          -5.12230523346482    4.02139949989017    2.99221102884459
C          -4.51780572134464    2.70780559466792    2.97521870624453
N          -4.17552248570840    2.29994311014338    4.19802338650609
S          -4.59414274954794    3.42709557490681    5.25832056131642
N          -5.20844095677150    4.49798879140464    4.24001689892690
C          -6.08409894733443    6.01146961520026    1.81496740309762
C          -7.08065468993282    6.38473761239333    0.89794576688808
C          -7.53654851988117    7.67719580231743    0.88834415159669
C          -7.01563439207385    8.63049519584710    1.78403044581262
C          -6.04541062757539    8.26456713541678    2.70991114811887
C          -5.59441427291447    6.96290717678291    2.72320608983049
C          -7.66203528676946    9.89470578452899    1.53561133368549
C          -8.59110123492220    9.72805412231068    0.48958274717508
C          -8.58485647439674    8.29935294997390   -0.00288329594641
C          -8.17937244198362    8.20962278044559   -1.48670434552738
C          -6.79994298571166    8.79386608023830   -1.76400450390329
C          -9.95926423609705    7.63284379419806    0.19587342298733
C         -10.43810421145723    7.67898289921709    1.64198797444188
C          -9.35822571825882   10.78343381987986    0.06866033461976
C          -9.21345843359251   12.04529897362895    0.67739034221372
C          -8.27088055262124   12.19359325246864    1.71078939249432
C          -7.50279576547834   11.13567934659794    2.14244263475788
C         -10.05737871691511   13.11826574572572    0.23208908219655
C          -9.98072854343568   14.40885749249432    0.64062769124016
C         -10.84501871759477   15.46260085751885    0.23570104424860
C         -10.60887398888993   16.77505683484539    0.72185087738544
C         -11.45210160602235   17.89073040134637    0.38785197531032
N         -11.17651578413835   19.10593727039411    0.86912397456661
C         -10.13022298178124   19.27260493301404    1.64952503292803
C          -9.29528049660373   18.16377873131247    1.98920319954947
N          -9.54893371299383   16.96383763584530    1.52737417263332
C          -8.17423599314333   18.35056529586734    2.83692973092226
N          -7.27467133317406   18.52831566724454    3.52364082115011
C          -9.84602385107800   20.56510512322752    2.15019720901389
N          -9.59443411711174   21.60193887022165    2.56915625083819
C         -12.60505246801019   17.75033902804568   -0.44977721315402
C         -12.82716594575848   16.43986931365706   -0.94248431133022
C         -11.96744789309808   15.32447182374782   -0.61547441427048
N         -12.38326889998859   14.20270800678574   -1.20421623546043
S         -13.70204260103505   14.50436901741834   -2.07310461272529
N         -13.81774331055995   16.07631557157882   -1.74745077669201
C         -13.38583170836800   18.88522152018819   -0.69737521296507
C         -14.55637855887758   19.07549469342128   -1.40227020772617
C         -15.17688362744664   20.34954400562458   -1.49011861099624
C         -16.34160856432428   20.36916898479089   -2.19287187073600
C         -16.70327248477999   19.10152125911009   -2.69998609952935
S         -15.50765298185367   17.89361770032368   -2.26532111862081
C         -17.82439030901874   18.77786865967784   -3.43781276013739
C         -18.86551253395455   19.65294866731656   -3.85458287958449
C         -19.84763150038951   19.05143547027700   -4.56351195702492
C         -19.65365544270030   17.64415310908084   -4.76141788823732
S         -18.13895222396555   17.15061435350259   -3.98512351801353
C         -20.45233645750313   16.78903963996435   -5.41594492529745
H          -0.89617246507672    1.32206812175659   -2.75967629100324
H          -1.21627703285958   -3.32274660752540   -0.90755250907137
H           1.41298212833296   -2.28458956743632   -5.41818374265273
H           0.58805251446663    0.11790637372444   -4.81157092009843
H          -3.85137080309175    0.12413118854200    2.67388584457052
H          -7.49364129897421    5.65097154807569    0.22498584545487
H          -5.64328384044463    8.98892604094990    3.40184527849306
H          -4.82899292287843    6.66825046373068    3.42290176673917
H          -8.92524033429953    8.73825160367698   -2.08388781640520
H          -8.18935740677020    7.16099130527550   -1.79024591208923
H          -6.75843260631617    9.84270513074890   -1.47713904659727
H          -6.57181053756911    8.71463481733478   -2.82394920209258
H          -6.03595677916625    8.25271566110037   -1.21064762118350
H          -9.89219038455378    6.59326512364239   -0.13120717949191
H         -10.68669540359764    8.13695507258147   -0.44360726492623
H          -9.73811365013465    7.16362245533392    2.29620275118780
H         -11.40902502038749    7.19681369106319    1.72930971758476
H         -10.53309074221550    8.70733524824800    1.98388678212090
H         -10.07879786914352   10.66425310682062   -0.72777782012515
H          -8.15384233568220   13.15370220117749    2.18775700570648
H          -6.79040224132655   11.26741885770904    2.94293020017819
H         -10.81782556538044   12.85667552192082   -0.49076938553756
H          -9.21191541797593   14.72203378998934    1.33217776869268
H         -12.99368907211936   19.78036221474802   -0.22730978678922
H         -14.73672973717492   21.21284554957349   -1.02254408403554
H         -16.93717596251874   21.25009004340522   -2.35162808588172
H         -18.84743697740345   20.70031298192218   -3.61159160349189
H         -20.71456269029110   19.54829719507785   -4.96103710835973
H         -21.36468313100384   17.12952576185884   -5.87307478542356
H         -20.21085364747931   15.74573824964201   -5.50526097567276
