93
 SCF done       -178.264759354671          0.000210236072
C          -1.18254051873208   -0.24459118147108    2.16803886209731
C          -1.08810802419929   -0.94529070316502    3.34302562556000
C          -0.37298464383527   -2.15142221731255    3.49330828339064
N           0.19376933735471   -3.13141599705562    3.68627024945206
C          -1.68296333997191   -0.57504113765054    4.56699251175884
N          -2.13128165277673   -0.35349024896049    5.60122981521345
C          -0.60095565572623   -0.64652399174662    0.89365413267331
C          -0.94966162700260    0.31087320209754   -0.09085942572205
C          -0.54262166211133    0.20839996263930   -1.39875143090516
C           0.23763580001556   -0.89520409854307   -1.75698187017132
C           0.58153152816853   -1.84594429729550   -0.76704511441209
C           0.17591509637192   -1.74001904420660    0.55758302469169
S           1.55801125202136   -3.11918314680539   -1.43112522834344
C           1.49658217002349   -2.38320953163447   -2.99547511849134
C           0.78090705375411   -1.23809133420199   -3.02741530097629
C          -1.74778651277313    1.38673475021445    0.52724709283545
O          -2.06878983696786    2.43045568528527    0.00252219860638
C          -1.92296394541774    0.98507199461302    1.94930781473306
C          -2.55236450323641    1.73671159195463    2.89077310764226
C          -3.44164700729163    2.82773336511861    2.61919419381256
C          -3.47132930300929    3.95540187731423    3.42997759241760
C          -4.29468975357150    5.04605854122683    3.17211709110752
C          -5.20258981897047    5.06582720808244    2.12252701525349
C          -5.23642117561758    3.91438998540089    1.29190294269217
C          -4.36607380184385    2.79825428390349    1.54380752567020
N          -4.57891498691967    1.79548828251198    0.69494643285706
S          -5.70383367324448    2.24339399963481   -0.35884238599207
N          -6.00297183287760    3.70922069776294    0.22090662997437
C          -6.06523338892145    6.19903120662131    1.87448735987508
C          -7.38073542583136    6.04095297764948    1.40661276810429
C          -8.20582643483058    7.16367098679475    1.01499786923989
N          -9.39417468197633    6.94529103599939    0.47191248513673
C          -9.85112531576279    5.71009351464707    0.33498596221201
C          -9.10229072869737    4.62234107013714    0.87740251189853
N          -7.91518304864629    4.80557471634378    1.39191723091911
C          -9.66510760978318    3.32158787385794    0.86324040096071
N         -10.15802065502032    2.28850234734300    0.80592101121594
C         -11.08633093318418    5.46990169438185   -0.29060567043500
N         -12.08576949456281    5.19313307715939   -0.78557166685357
C          -7.77199748656906    8.51315559614449    1.18347180755050
C          -6.46729778533720    8.65605733492774    1.74618803271055
C          -5.63495109083319    7.52849373562609    2.08377274339929
N          -4.45466163009749    7.91661411512332    2.56515532331707
S          -4.39909435594580    9.52724661024512    2.59692358378900
N          -5.86974650910159    9.81342568334803    1.99684923537837
C          -8.47401944809358    9.66661764289898    0.84431309120648
C          -9.73607463735222    9.87443409345450    0.30110770722649
C         -10.24308687839578   11.16893443709006    0.05971933787230
C         -11.50799509047695   11.19983079113710   -0.46566393020202
C         -12.04294220634921    9.92078888676143   -0.65827935482675
S         -10.91071354130372    8.67736583769270   -0.16440908361863
C         -13.29186620677008    9.56333574762088   -1.16603845719419
C         -14.34111425646246   10.39203151787951   -1.60213959088016
C         -15.43801931737235    9.70013186330182   -2.03657617839139
C         -15.30578501275039    8.29564745509892   -1.96565423330859
S         -13.72483856940763    7.88908025379654   -1.32251729784290
C         -16.26925972362150    7.38179228095484   -2.34079525461739
C         -16.20895357488265    5.98183630840486   -2.30190927961942
C         -17.26265896784347    5.13268581880257   -2.70470389774006
C         -16.86140483093072    3.79681001902910   -2.53561853107587
C         -17.50601594327393    2.59300713954168   -2.78015609137235
C         -16.80851355985850    1.41831898942613   -2.50186711456326
C         -17.16683752370743    0.07432231014122   -2.63891238165153
C         -16.08524224798978   -0.73904012702387   -2.21250993307572
C         -15.04823064410877    0.09850852102476   -1.80614138710218
C         -15.45401933864314    1.44961498874493   -1.97062061575416
C         -14.80715075381440    2.63607195589751   -1.72441879849986
C         -15.50713740306363    3.82354280463380   -2.00734695423540
C         -15.12444863384215    5.14525835165701   -1.87117277805930
C         -16.03174199666698   -2.18144976391298   -2.19120370385331
C         -17.00563634917223   -2.99707127749817   -2.58628719724271
H          -0.82109957068949    0.95746966388122   -2.12375011755906
H           0.47030672658388   -2.48756403181982    1.27508654242193
H           2.00968016999759   -2.86196982277233   -3.80681699290420
H           0.63442715735495   -0.64402105465844   -3.91139005300892
H          -2.37797500307118    1.52697505336954    3.93894582610308
H          -2.79429388671449    4.00232481390671    4.27089543587511
H          -4.23954700831460    5.90588852149285    3.82049101599851
H          -7.92423346350256   10.57783645898810    1.05401179128429
H          -9.66133683450761   12.04644071278516    0.28215848526700
H         -12.03967790927446   12.10323012220519   -0.70759052693928
H         -14.26828142851626   11.46454222971776   -1.58544692817698
H         -16.33695331859480   10.16269989005493   -2.40528728808262
H         -17.19441407338958    7.80636603370093   -2.71417313910999
H         -18.21580513675145    5.46027408846219   -3.07863736927629
H         -18.51252967152566    2.56276785946616   -3.17362948349673
H         -18.11065749778390   -0.28275786788889   -3.00797521256313
H         -14.09298775343689   -0.21746598890112   -1.42862474376315
H         -13.80224602373862    2.67806342678771   -1.33039469735966
H         -14.16812778604378    5.46716933345329   -1.50671404893403
H         -15.10453400465170   -2.59647731952502   -1.81673517455583
H         -17.94436510457986   -2.63118913759297   -2.96569961243192
H         -16.89565431049730   -4.06657190562331   -2.54232905580115
