98
 SCF done       -178.619478904124          0.000955815098
C          -1.01077837086698   -5.36070618977136   -0.17799394057579
C          -1.51778622979208   -5.03428080814932    1.05969367297681
C          -0.74253465271817   -4.93356603954897    2.23121170599820
N          -0.17405363452453   -4.83214528509654    3.22477696199951
C          -2.86621773654578   -4.74990450212746    1.35027416035011
N          -3.93954130895508   -4.50467540280037    1.68113436089588
C           0.39469352597504   -5.64600880165810   -0.45996155457072
C           0.53103588536864   -5.92826170819587   -1.84165836885364
C           1.73774210100962   -6.23734687929007   -2.41902452306701
C           2.86743509452314   -6.27089284060436   -1.59465757226853
C           2.72195758214915   -5.98824884683769   -0.21708322123231
C           1.49968731164282   -5.67467549844278    0.36784743119803
S           4.24590620016637   -6.08868923216052    0.60920422712934
C           5.04751823319359   -6.49941637257758   -0.86818166577228
C           4.21960894599105   -6.56061876807416   -1.93354726809834
C          -0.79145837889876   -5.83357080706167   -2.49038781983422
O          -1.02770937105328   -6.01435697997831   -3.67047039770697
C          -1.73950262784448   -5.48028196303982   -1.41459082043111
C          -3.09789574380900   -5.30941256634974   -1.59274326612644
C          -3.76307551758065   -5.43684405992621   -2.80775255203421
C          -5.12806700340238   -5.27135878479076   -2.94412375040752
C          -5.87299360972337   -5.38936507576398   -4.13883558589960
C          -7.21288984662404   -5.18198942626398   -3.98398058874895
C          -7.59018604637133   -4.88966828098532   -2.65701206473594
S          -6.18991147782075   -4.88178552123073   -1.60917586635459
C          -8.86398859987696   -4.63983786867363   -2.17205314619239
C         -10.07770739143482   -4.63620365470770   -2.89495420287638
C         -11.17710226785824   -4.36182165991202   -2.13810891023750
C         -10.89762572315541   -4.12947948333312   -0.77049259555398
S          -9.16422504046936   -4.28793511917317   -0.49308957990568
C         -11.71415854436835   -3.84719052171489    0.29845849067244
C         -13.10676097252882   -3.65138039296234    0.33454781456755
C         -14.04605988993036   -3.49794068886059   -0.65140919187530
C         -15.37447837173089   -3.33503550829150   -0.11559919655806
C         -15.25666801841972   -3.38717536996665    1.25973165298859
C         -13.81525621856129   -3.48874038333794    1.65661311371971
C         -13.76474745000828   -4.58918840913448    2.71258985224379
C         -14.93792099143304   -4.28682081862287    3.63695699032818
S         -16.32373630711924   -3.73450344859333    2.55654106295555
C         -16.51022887245529   -3.26218754046305   -0.96552167977114
C         -17.78221174498604   -2.86117455850241   -0.67397525656175
C         -18.33308175414508   -2.26775003805478    0.49248272106688
C         -19.65815083672474   -1.98264657016053    0.40177930243353
C         -20.24335007795563   -2.33363162680925   -0.84007726461104
S         -19.04096588843684   -3.01457368013646   -1.90227095885963
C         -21.56484778639215   -2.20518044582394   -1.21744407213113
C         -22.66006329100322   -1.73692117163552   -0.45898304556963
C         -23.84827863152798   -1.80454261078698   -1.11953270513163
C         -23.76710005156048   -2.34959455218161   -2.42662012637223
S         -22.10503745833816   -2.72115976638849   -2.80135287837143
C         -24.83783172006945   -2.47890040234083   -3.29144767968107
C         -24.88906318085272   -2.99701038229686   -4.58487156585675
C         -24.03457976219942   -3.81253956572395   -5.30032533216450
C         -22.99203068502659   -4.72147009220021   -4.93509092375602
C         -22.83557340152427   -5.34701887655530   -3.71530290908292
C         -21.78059071457244   -6.22186522262936   -3.40117617590064
N         -20.92723033542168   -6.91742795759685   -3.07200344536613
C         -23.77254298143405   -5.24233858951388   -2.67190215147279
N         -24.52512522277166   -5.19480603095892   -1.80543164528108
C         -22.22908968805597   -5.03413542913281   -6.14181835577997
C         -22.91487025296338   -4.49639409748838   -7.25944206875928
C         -24.11261870834083   -3.77505999388099   -6.78337009101916
O         -24.96422348264118   -3.23121714596503   -7.45351018527568
C         -22.46286560924983   -4.65375845935632   -8.54601272177517
C         -21.27023841136814   -5.36092036202155   -8.73716769806220
C         -20.58626294228547   -5.87749912899345   -7.61351837661625
C         -21.05046239845508   -5.73016505629221   -6.31002512460611
S         -19.13177135962169   -6.69905588877198   -8.08716949729756
C         -19.44997302609688   -6.35548194406556   -9.75369125694100
C         -20.58817306617583   -5.65693238095259   -9.95206078103548
H           1.80782764224130   -6.44757063799003   -3.47512380043995
H           1.44336440670117   -5.46768138557742    1.42335371215960
H           6.10579306836896   -6.67317733831718   -0.84497322583835
H           4.53904359288123   -6.80189124537367   -2.93136680303422
H          -3.70352179098514   -5.06139968786208   -0.72949883228968
H          -3.19292917013785   -5.68006096392920   -3.69278104723604
H          -5.39555405728748   -5.62527709721600   -5.07312773674241
H          -7.92891841982614   -5.23296456464608   -4.78441112840333
H         -10.11027051495551   -4.84071625787189   -3.95001567252019
H         -12.17572424197765   -4.34451678579615   -2.53056606584671
H         -11.21607943546162   -3.78636532948113    1.25813097774473
H         -13.86499756237214   -3.49190205903248   -1.70947857387575
H         -13.49565850723367   -2.54205998365591    2.11343043950836
H         -12.82834494377317   -4.59661323156728    3.26879202648636
H         -13.89786523335747   -5.56069757804022    2.23282373438486
H         -14.71190286543941   -3.46768427642571    4.32033910225574
H         -15.28087346394987   -5.14803658525126    4.20550619346641
H         -16.32737104423544   -3.57276648219467   -1.98630291130609
H         -17.72980394271780   -2.04310230092822    1.35188061790420
H         -20.23384181890206   -1.52941108116921    1.18842613058861
H         -22.54507162979661   -1.37840140599083    0.54781094899434
H         -24.79321929480259   -1.50564273491784   -0.70250518846338
H         -25.75691654658773   -2.03349547835648   -2.92994350481272
H         -25.72853580854608   -2.64922572506870   -5.18203049155172
H         -23.00974933661485   -4.24372849055415   -9.38093402319631
H         -20.49449451877003   -6.13921942001531   -5.48268391094830
H         -18.75275864471974   -6.70445193673786  -10.49036477794498
H         -20.94722011130414   -5.35333640380046  -10.91891608697081
