121
 SCF done       -222.012593850147          0.000950229056
C          -9.97974830890754   13.95300606953326    2.83671068439746
C         -11.35039981150712   13.89088700796515    2.85411786490769
C         -12.12171865897588   13.81207295784389    4.02983901637035
N         -12.79601523985638   13.74869769903358    4.95758736914111
C         -12.15163659759454   13.83201207021104    1.69509129109286
N         -12.86399227554585   13.74201632699191    0.79869868171808
C          -9.09864860200985   13.87693481461352    3.99463911723993
C          -7.76168417375454   13.77469780169264    3.53586171500427
C          -6.69284583028733   13.69619045332497    4.39477249593449
C          -6.95423139402490   13.71875476907331    5.76880116270498
C          -8.29207115669367   13.82408504042545    6.21549194242263
C          -9.37537667110591   13.90290364333526    5.34751501814352
S          -8.37515820855273   13.85141795205460    7.94959796064141
C          -6.65312786630573   13.72301224457001    8.05866059326357
C          -6.03847529569231   13.66138088983195    6.85764616443991
C          -7.73913030631345   13.81864389708056    2.05947860714863
O          -6.74758421290768   13.83707498442815    1.35927672604475
C          -9.15494296409252   13.98353087911426    1.65116868427079
C          -9.55181109658839   14.35937974834945    0.39815626420436
C          -8.77224576683826   14.20405860452052   -0.77546352409440
C          -8.83587106953114   15.15997774970359   -1.81711621376550
C          -7.96604885394703   15.09732697350987   -2.95812234547107
N          -7.99314467946032   16.06494371575213   -3.87314306936838
C          -8.84192652358383   17.06592711886103   -3.72992264043330
C          -9.72654350641281   17.11269439761228   -2.61225200949672
N          -9.69676517431139   16.18403927407599   -1.68579668230511
C         -10.65126109611547   18.18175459925996   -2.49246131279205
N         -11.37826626651143   19.06484539416238   -2.43443318192987
C          -8.86018930861212   18.08916283918334   -4.70592722070448
N          -8.89218034881243   18.93040548304559   -5.48455868213442
C          -7.04238541909293   14.01195837252006   -3.15703634265409
C          -7.11077292615139   12.97941990089714   -2.18414757489821
C          -7.93958518024960   13.08543645513199   -1.00841828825457
N          -7.86633546032763   11.99554708612890   -0.25138394582299
S          -6.83328483904885   10.95918182887543   -0.91001776075010
N          -6.44697594831777   11.83189597470908   -2.21391708074437
C          -6.16224839293108   14.08288730936078   -4.23309645902827
C          -5.24454595911271   13.17483374620460   -4.74059272030286
C          -4.39241031318239   13.49310261894742   -5.82191686211643
C          -3.60340297947962   12.46120349319091   -6.24692086917542
C          -3.82551686025112   11.27413952315642   -5.52977335849017
S          -5.00696541022105   11.51750837241086   -4.26128488346431
C          -3.26290315065874   10.02364489084712   -5.76469462197071
C          -2.27939683553284    9.67534219539025   -6.71022748523471
C          -1.99554516716379    8.34131161078482   -6.74082569586189
C          -2.74808910425990    7.55727930624372   -5.83061578542105
S          -3.79730584787638    8.61354859497040   -4.89476528697381
C          -2.71265018830022    6.18395801255258   -5.78956412041682
C          -3.47354177932851    5.26794879781538   -5.01908642329888
C          -3.47889786444498    3.93490040673138   -5.42053122649324
C          -4.31648869057643    3.00488944807614   -4.79387112620945
C          -4.57489856013347    1.65967034787596   -5.06280718439532
C          -3.99384708797335    0.75381955571911   -6.09128211280335
C          -4.73648167406683    0.90556558103233   -7.43945856164656
N          -4.53446840669012    2.23116255304082   -7.99658452722939
C          -2.47652279104783    0.92987251161431   -6.28208070239555
N          -1.88581815638582   -0.36542216675338   -6.57621589226387
C          -5.61106245683251    1.25062641460782   -4.14619325714803
C          -6.29264179166907    0.09281952408010   -4.05519263908362
C          -7.39060815295549   -0.08216631194063   -3.05555011620836
C          -7.58878138440518    1.08039613511895   -2.13509245495797
C          -6.91158936753545    2.23573828947135   -2.25868795352050
C          -5.93242598126177    2.38618414906381   -3.27281184625393
C          -5.15014586703192    3.44491702268965   -3.67799900669726
C          -5.05826787018533    4.78449995045321   -3.22894850872916
C          -4.25650984584623    5.66058900808633   -3.87982540340546
C          -7.11569865746845   -1.35434286213218   -2.30587953002820
C          -7.63495391836652   -2.53672132387308   -2.65963860920209
C          -7.32159561468951   -3.76377725123165   -2.00059451645145
C          -7.57654641601347   -5.01430050783185   -2.45605386417422
C          -8.06011155220645   -5.48999604657992   -3.73825271910255
C          -7.83108296158323   -4.91617705443262   -4.96211469764629
C          -8.28823710360031   -5.45998718407548   -6.18153423321063
N          -8.65132062257669   -5.84371811183023   -7.20039221390756
C          -7.03037556370510   -3.77686684353958   -5.17538892687111
N          -6.35656572535067   -2.88154955755145   -5.42829884125532
C          -8.63937409579350   -6.80824183688183   -3.51634977115174
C          -8.30581861081839   -7.23871153817090   -2.20457959898264
C          -7.55170331404380   -6.17499161709897   -1.51774538130388
O          -7.05953953409160   -6.19844269328726   -0.41428983373496
C          -8.68228521312185   -8.46683903199339   -1.71617621389385
C          -9.42934250091583   -9.30254938718264   -2.55211284291957
C          -9.76840513546141   -8.85755672259902   -3.85362167877247
C          -9.38131779914090   -7.61983774120396   -4.35297477471859
S         -10.70406275022435  -10.04726836457549   -4.70107698078839
C         -10.63141709302219  -11.10989062726860   -3.33895487239819
C          -9.94199151783101  -10.60449925111270   -2.29263165898608
H          -5.68422195483262   13.62321882337275    4.01811564482907
H         -10.37739073088544   13.99314857717804    5.73333212882460
H          -6.20187596287496   13.70322894916983    9.03162108653553
H          -4.97398571025224   13.58129335073483    6.72957516425020
H         -10.49201779020383   14.88197879326844    0.26938150727699
H          -6.21708145575452   15.01874828974261   -4.77811260859099
H          -4.38776409978995   14.47693854594065   -6.25703372761633
H          -2.90152627852851   12.53139603035190   -7.05843966098092
H          -1.81047613200131   10.40778289348601   -7.34195942653876
H          -1.27717184954821    7.89121987185312   -7.40320592010839
H          -2.05050619818733    5.73151157445315   -6.51952234990510
H          -2.88348779602866    3.63220315641171   -6.26712726049207
H          -4.14796168917758   -0.27792152280604   -5.75966094539349
H          -5.79759821508545    0.65478438975986   -7.27743110294504
H          -4.32549691700628    0.18004567106212   -8.14607710554078
H          -5.01499136688065    2.92499735578999   -7.43315047056048
H          -4.90772939222085    2.28027170864869   -8.93766640115983
H          -2.03094643016279    1.28651839200655   -5.34975712952200
H          -2.30005204694580    1.67807535820367   -7.06849711448157
H          -2.21856972966241   -0.71090980075734   -7.47003462567472
H          -0.87612043706488   -0.29403526501199   -6.62874929881410
H          -6.09387806358475   -0.75665001825167   -4.69399715891011
H          -8.31891906132144   -0.23121324690802   -3.63065577168744
H          -8.33257696765537    0.94692142732428   -1.36422060793771
H          -7.10528876030396    3.06211369549969   -1.59062220508816
H          -5.63752411681624    5.09751040899961   -2.37315173106700
H          -4.18082067089444    6.67670120608608   -3.52912219867189
H          -6.39863296566695   -1.28409762569010   -1.50024117888791
H          -8.33559428469859   -2.58133142930885   -3.48381595823348
H          -6.89193743774153   -3.69932651085352   -1.00707705277845
H          -8.40856021191750   -8.77288258124644   -0.71846779351131
H          -9.66846562092952   -7.31993423352228   -5.34740016548146
H         -11.11853138454248  -12.06320127884680   -3.40676510006660
H          -9.79366359542389  -11.12264531009937   -1.36264809397498
