115
 SCF done       -217.319182320252          0.000849635254
C          -3.73607217160648   -0.75421067333362    0.24521993076561
C          -4.00927587663617   -1.79161271198971    1.09838192698865
C          -3.31385188407777   -3.01963733941994    1.09567119573847
N          -2.78140818844463   -4.03503180476843    1.14969362713234
C          -5.02410806444820   -1.81021353898518    2.07874466857728
N          -5.82840675710062   -1.91496520052392    2.89183265695423
C          -2.71906440086879   -0.76728987045823   -0.80096570176678
C          -2.79101139356671    0.45243236274803   -1.52142021256516
C          -1.96101160868722    0.74186840205222   -2.57785669556844
C          -1.01019610161585   -0.21606879778849   -2.94125953369963
C          -0.94232964648027   -1.42992986446491   -2.21551508241651
C          -1.78388609189125   -1.72327162260854   -1.14822787579968
S           0.30587925370743   -2.46294930722478   -2.83488966078375
C           0.71757074263811   -1.28764373696674   -4.03469431084953
C          -0.03963044090273   -0.16997216080117   -3.98110421590508
C          -3.85260843297498    1.28869703503992   -0.94731545454203
O          -4.19496115448850    2.39348777794804   -1.33607971453369
C          -4.40728648317677    0.53264157876114    0.18264109410225
C          -5.35485663356438    0.98879146720964    1.06064409451608
C          -6.03972148866547    2.21196404327659    1.09452043885476
S          -5.91281250611146    3.51621879243078   -0.05476073356346
C          -7.06076220673530    4.47145778147895    0.81896253656569
C          -7.51793479272798    3.80580287533024    1.95915568849973
C          -6.95378133235425    2.54389959975263    2.11291506041042
S          -7.25756555835926    1.41907780467129    3.42664085589397
C          -8.40073152850259    2.15428003073110    4.56347856397240
O          -8.64430310186428    1.52753935537447    5.55534040545057
C          -9.08702317456418    3.48586897735819    4.34084608409388
O          -9.92473390758857    3.85176321751368    5.11843064008535
S          -8.71105125084394    4.57013347328778    3.00260955685023
C          -7.44376752830784    5.77652704374879    0.41402600150973
C          -7.01252090653200    6.35421812147984   -0.72923997056058
C          -7.32158301209409    7.67876629782562   -1.19660053358687
C          -6.92062442645615    8.03496128885363   -2.49671434798543
C          -7.17875767663263    9.29650126559614   -2.97286284906855
C          -7.79219391557205   10.25205514704799   -2.14046319661176
C          -8.20232378434353    9.91163192870316   -0.85767495662562
C          -7.97806476354015    8.63049351204496   -0.40132477414099
C          -7.82153255656401   11.51885375817899   -2.83502413453378
C          -7.23813504783483   11.34593110648734   -4.10229416710779
C          -6.85929768078964    9.89713546368610   -4.32272864763836
C          -5.38121192479788    9.73247064920404   -4.70370371444900
C          -4.44506397086612   10.37909671840542   -3.68894893353787
C          -7.79868775770427    9.34808944912360   -5.42379604801557
C          -7.72264373378052    7.84733348273801   -5.66987281016281
C          -7.10637389545948   12.41085604731397   -4.95787800572773
C          -7.52645272670190   13.68871957828137   -4.55230233843842
C          -8.11872846166293   13.84079299951617   -3.28994535707322
C          -8.27417229151093   12.76976598349485   -2.43547056740466
C          -7.32519321133873   14.79091031711032   -5.45992741941249
C          -7.38827352513522   16.09911770277134   -5.13529267804721
C          -7.17098582121418   17.20554740422563   -6.00418321926123
S          -6.95282224172684   18.76259818966154   -5.26684887043494
C          -6.72699073235478   19.54311256213525   -6.79634970656848
C          -6.84220399506309   18.61795367480085   -7.83020735622231
C          -7.09065630342737   17.30953805785565   -7.39143000655912
S          -7.36634986275746   15.92461537487255   -8.44241904573257
C          -7.41272729428726   16.45551907083778  -10.12772151975820
O          -7.75833355887656   15.63931984828079  -10.93633877891554
C          -6.96527206835558   17.82349782411170  -10.59141374825600
O          -6.81901545078980   18.03580345635974  -11.76225487765812
S          -6.64290598634781   19.16612885237595   -9.48903000958834
C          -6.49847562399910   20.93031815695609   -6.92854442320837
C          -6.39396198606391   21.79844435578562   -5.89103434164706
C          -6.15531203051781   23.18975587230152   -6.01558113453299
C          -6.36834223858054   24.03269536035859   -7.06376078441857
C          -7.11198904195043   23.93709991396384   -8.30359948578141
C          -8.23619415203057   23.18870655757852   -8.54203861202796
C          -8.98260763535950   23.24846861845333   -9.73765165157177
N          -9.62869057207466   23.24646487370278  -10.68622919497610
C          -8.83304177641798   22.32133321788266   -7.60742438803091
N          -9.37221855041843   21.60663289836673   -6.88840833047857
C          -6.60824760328962   24.98128892372192   -9.19028062025469
C          -5.76180079033936   25.84467084764806   -8.44756195976469
C          -5.65121136119195   25.34319539318921   -7.06816381685922
O          -5.06858264517556   25.84441552884843   -6.13402589163822
C          -5.16062060277729   26.94696959008144   -9.00630176569338
C          -5.39513012690318   27.20255713069833  -10.36071190311860
C          -6.22770448622082   26.32480715271061  -11.09721527324902
C          -6.84272418598920   25.21398029548799  -10.53137926619943
S          -6.36249232014899   26.82679340376484  -12.75206661546481
C          -5.33088422099192   28.18164481307377  -12.45053926871904
C          -4.89849118895953   28.26049716810747  -11.17304965969475
H          -2.04347970694822    1.67954152408385   -3.10516325909596
H          -1.68883797989997   -2.66153068868084   -0.62814962226024
H           1.51446690586432   -1.50984468555708   -4.71752747414413
H           0.07292299331693    0.66633845351168   -4.64701009025295
H          -5.62405422023835    0.32766426138388    1.87608490806992
H          -8.11962140061301    6.29260623821573    1.08172335248936
H          -6.36771101117569    5.76756410516784   -1.37344666040677
H          -6.40101346411101    7.30552586952893   -3.09988729212231
H          -8.67938763973983   10.64251016624704   -0.22238400033625
H          -8.28577547658898    8.36668508674485    0.59818041677324
H          -5.21851462200897   10.17977372582197   -5.68632479518873
H          -5.14687812336085    8.66999270123659   -4.77618330249746
H          -4.63270127959029   11.44816420751484   -3.61664708803014
H          -3.40977673825880   10.23108800217456   -3.98705477817305
H          -4.58541070115040    9.93975679635967   -2.70363806902936
H          -7.56529624182505    9.87539296688679   -6.35128706152425
H          -8.82461429360265    9.60594204476364   -5.14782271021098
H          -6.71685571968016    7.53899463027152   -5.94220926413558
H          -8.38755764801959    7.58531619799544   -6.48992892213353
H          -8.03809258583252    7.29254332018629   -4.79040244128653
H          -6.66018260305340   12.28714806984512   -5.93407698917833
H          -8.47544730350939   14.81203062897301   -2.98483414828395
H          -8.73654411883869   12.90440321693663   -1.46931098785968
H          -7.05574439463476   14.50931501401010   -6.46764457321563
H          -7.57354699583170   16.38604447221434   -4.10909667045891
H          -6.36940881272328   21.28234496712628   -7.94395127652903
H          -6.42670108444550   21.40172547846817   -4.88417623630889
H          -5.67064183418418   23.66254817446215   -5.16565481034188
H          -4.52809502168930   27.59138947292066   -8.41581846296501
H          -7.46064788186987   24.56869582135552  -11.13372639461577
H          -5.10726148100908   28.84588699455342  -13.26261727387184
H          -4.24999407069611   29.03389255024069  -10.80322887865468
