125
 SCF done       -210.391324303615          0.000424550921
C          -4.74072639865764   -2.50426571380116   -0.34531645644443
C          -3.43503599533561   -2.81249449509155   -0.06308671982166
C          -2.92902024436521   -4.12682080940392    0.00121125026355
N          -2.46169737345849   -5.17388080319626    0.06218202252355
C          -2.43482839453269   -1.86662488848523    0.24657900122601
N          -1.57523308953010   -1.16459474870421    0.54118537929320
C          -5.82383355813215   -3.45848580282655   -0.53853498816254
C          -7.04254237217830   -2.74426928615745   -0.65698633994805
C          -8.25050053254199   -3.37233524098434   -0.84104057632219
C          -8.25910598963657   -4.76918278962222   -0.90456592600704
C          -7.03669249574409   -5.47275275511000   -0.78849347287622
C          -5.81334888035607   -4.83882463677448   -0.60702020969286
S          -7.28459801995469   -7.18689809470845   -0.90534950000641
C          -8.98719992628640   -6.95177843707408   -1.10121557452663
C          -9.36036341849707   -5.65370297215929   -1.08209947394536
C          -6.77799267647889   -1.29498261983632   -0.58178684042858
O          -7.58532397711234   -0.40833448397479   -0.76313021345971
C          -5.30878239217634   -1.17116372588164   -0.39139395017701
C          -4.61460845147313   -0.00227050980676   -0.45908291697071
C          -5.17491793993064    1.29827476765125   -0.29133400899269
C          -4.65431078072192    2.40046853475169   -1.00038719732493
C          -5.20629874304086    3.72765427979294   -0.87119784381861
N          -4.63284217814186    4.74434303864628   -1.53797179115190
C          -3.62171655846558    4.50204384816042   -2.33753094725560
C          -3.13190966984010    3.16835932529836   -2.52529174460580
N          -3.64280439252424    2.16710093927606   -1.85507870745061
C          -2.07757105740219    2.93034315234619   -3.44225604467378
N          -1.23402242190067    2.78294238170558   -4.20324884035311
C          -2.99215168594191    5.57030087629764   -3.02183188559074
N          -2.45129073237277    6.39665098341064   -3.60348748768382
C          -6.30167348541057    4.00031220796884   -0.01429691119263
C          -6.75765823026925    2.91304147437124    0.75815419831934
C          -6.20388122706930    1.58352916658701    0.62544160913093
N          -6.75182445014532    0.72629160557528    1.48516732713935
S          -7.89055593785000    1.48357935561084    2.31878460796715
N          -7.73008796579258    2.94218912724737    1.67663256091057
C          -6.89071665129801    5.31986143817407    0.09118419640895
C          -6.96501905910793    6.16718018689090   -1.02743292974038
C          -7.47303295751966    7.43445852845823   -0.88789862239103
C          -7.97066701181864    7.87023339348462    0.35639057992142
C          -7.92187038663367    7.03123474502463    1.46400951787296
C          -7.38180620063943    5.77241784422481    1.32640977549718
C          -8.49428433789264    9.20386274200503    0.20588268367344
C          -8.32196068807049    9.60277283747571   -1.13303706254579
C          -7.61787749490573    8.52350539574601   -1.92594802533106
C          -6.24465959297290    9.09904041970684   -2.34798575982425
C          -5.27298039843749    8.10352036831589   -2.96364107942799
C          -8.43805212137246    8.06573639758112   -3.14066162023634
C          -9.83642359995679    7.59805812576781   -2.75320405472390
C          -8.71362451469768   10.84971650966568   -1.54268267195312
C          -9.29039329681560   11.74596708514363   -0.62228669288030
C          -9.47873255443633   11.31978307775231    0.70463648534879
C          -9.08972132031547   10.06646777120802    1.12080719955847
C          -9.61602767015759   13.06254068409139   -1.08071594162167
C         -10.10450132732284   14.09704002962178   -0.34865998231213
C         -10.31654233074742   15.39022383370847   -0.86490176442975
S          -9.94033998993185   15.78770451029999   -2.51386632053972
C         -10.39291592837711   17.45333379432295   -2.32307060766847
C         -10.83773804786204   17.69054809064187   -1.00972777363002
C         -10.79640210240212   16.52737670060229   -0.18768773981534
C         -11.20705571594213   16.61897081717539    1.14977255130476
C         -11.64453969695448   17.81510607421337    1.67331482320743
C         -12.05836371873124   17.89302568985386    3.07329089916310
C         -12.66230620429979   16.91553305482746    3.73601526790706
C         -11.67905981159876   18.98001447233425    0.85195391516825
C         -12.16427572384254   20.28149485445874    1.41364427492549
C         -11.28603559795175   18.90329401382705   -0.45822191902159
C         -10.28118731176706   18.37480882518460   -3.38235680734696
C          -9.81352287981532   18.05868644882716   -4.61978356114361
C          -9.65902843526168   18.95341406151405   -5.71007914112047
C          -9.16077221136574   18.60719588548507   -6.96215207551824
C          -9.14194032725820   19.76558305802061   -7.78615004907375
C          -8.74254811677855   19.95920708420974   -9.08622409184346
C          -8.84960640709546   21.25813804932316   -9.61641563130173
C          -8.53619487761729   21.76930038978856  -10.86527165716488
C          -8.83968132185918   23.16973616781545  -10.88760579345896
C          -9.34017242250352   23.51740420253348   -9.64819630049858
C          -9.36589184045586   22.35286629493576   -8.81545052916148
C          -9.76514811635385   22.16371234821203   -7.52080886928169
C          -9.65710409870521   20.86110980821385   -6.98487509799236
C          -9.96507647809793   20.35770936370793   -5.73591023910249
C          -8.66148964445897   24.07395169321207  -11.99794800465576
C          -8.17159794262080   23.74769560138629  -13.19101987939943
H          -9.16212133678184   -2.80189455672455   -0.93047059364660
H          -4.90757638724330   -5.41733531893946   -0.53261722668673
H          -9.61271699619015   -7.81491140052230   -1.22134575107007
H         -10.37577011958085   -5.31748378970254   -1.19024544487938
H          -3.55757360678091   -0.01965214079086   -0.69316131522049
H          -6.65399371942041    5.79814707646601   -1.99039768366352
H          -8.29472012624297    7.36294096062527    2.42145648287065
H          -7.31663128232321    5.12131797025236    2.18272722932236
H          -5.77931345500285    9.53790797397517   -1.46134774691763
H          -6.42935695771686    9.90882519296184   -3.05751164170159
H          -4.99722467832581    7.33729357368966   -2.24553607579729
H          -4.36431575842080    8.61901532630506   -3.26514599258419
H          -5.69301972756944    7.62795416610664   -3.84604317976580
H          -7.91340355465459    7.24937646362400   -3.63800853974348
H          -8.51438385275827    8.89551278250330   -3.84653006193805
H          -9.78252572330344    6.76117522918472   -2.06020545239385
H         -10.38352621988359    7.27797980510588   -3.63711142705679
H         -10.39319162296434    8.40193010072927   -2.27615852960310
H          -8.57575718520797   11.16592468189460   -2.56678303302366
H          -9.93174789335246   11.99170501225422    1.41719292501424
H          -9.23560085423923    9.76135571495191    2.14642108472676
H          -9.41039642199046   13.25146457440809   -2.12824131679403
H         -10.33542077451182   13.96525478482640    0.69854570451715
H         -11.15990174880652   15.74723382444764    1.78352318040112
H         -11.85258004563040   18.82696313208091    3.57852366315337
H         -12.92355858149534   15.98117748741430    3.26748261395045
H         -12.93762576497854   17.02119321346456    4.77131995174237
H         -11.47606943508758   20.65155409318029    2.17402975286993
H         -13.14303074482134   20.16058500309579    1.87541092381844
H         -12.23897717511947   21.03159978740190    0.63019674431766
H         -11.32088220822923   19.78612779580434   -1.07923778424467
H         -10.58369042833634   19.38920071801942   -3.16578893941590
H          -9.51721493049816   17.03335684554303   -4.80722344391034
H          -8.83959806431882   17.62650558174037   -7.26129944099576
H          -8.35621419280605   19.14909125917637   -9.68859307644918
H          -8.13122072743325   21.20896305978006  -11.68792143639222
H          -9.66076452938260   24.49779284638215   -9.34600090718425
H         -10.15007654572441   22.97388469625632   -6.91710093575590
H         -10.36809412368120   20.92094711559137   -4.91385758014119
H          -8.96280094829531   25.09624378776649  -11.80483807434120
H          -7.85816522857881   22.74601010328496  -13.43021789490604
H          -8.06632619051685   24.47757044602728  -13.97477499073389
