104
 SCF done       -189.146904864194          0.000370124043
C          -3.90028987030482   -0.91838147095085    0.67723280597817
C          -4.17746079275978   -1.88551066857372    1.60921000930196
C          -3.40939246601800   -3.05582120365538    1.78564815373531
N          -2.82973025498602   -4.02710488288626    1.98214767515957
C          -5.24530358447904   -1.86785951157186    2.53099181688293
N          -6.08088624457341   -1.93676304641652    3.31620659988923
C          -2.77781985733908   -0.94615360307705   -0.25545199587725
C          -2.80679263308827    0.23606173456663   -1.03801982254824
C          -1.87421153007655    0.50841092029680   -2.00977602307630
C          -0.86195720070788   -0.43183921286737   -2.22278438268706
C          -0.84017964220183   -1.61039873393643   -1.43903127932603
C          -1.78386613512937   -1.88482200638092   -0.45527289340362
S           0.49555671272880   -2.62863385253300   -1.87364536403823
C           1.00312401304284   -1.49223087479460   -3.07490333641568
C           0.21431115151373   -0.39839123887144   -3.15357291193529
C          -3.95572492182499    1.05469415471988   -0.62960026820837
O          -4.27459743276824    2.13638616761941   -1.09561694784572
C          -4.63408306417038    0.31106931373694    0.43844057173263
C          -5.77485399326992    0.70790844575504    1.08823623528957
C          -6.53902853863972    1.87247944332856    0.93897913240738
S          -6.22416138014786    3.20082937001154   -0.14611059314023
C          -7.60987434888828    4.06775262837860    0.42274422496040
C          -8.29243327244837    3.34915044191235    1.40892720218350
C          -7.69870284224467    2.12609995578741    1.69789037467156
S          -8.25578279108626    0.94967415108158    2.87666996554701
C          -9.72307209177539    1.56202631182216    3.65727445095781
O         -10.20968618346927    0.86290902872811    4.50092688189467
C         -10.38133396651658    2.88355589231610    3.32157635822847
O         -11.39221816270974    3.19642449425547    3.88904295922109
S          -9.74819798809520    4.02090945731630    2.13357115702574
C          -7.96762358361751    5.34873984142522   -0.06715556164027
C          -7.27836684732943    5.98140541837619   -1.04486898681780
C          -7.53903842452344    7.28373448047229   -1.58935988715691
C          -6.72350085251313    7.73399088557794   -2.64431612147620
C          -6.91926341392161    8.98153794156199   -3.18088675024035
C          -7.96507469235886    9.79721652458276   -2.70432718269367
C          -8.77908946582726    9.36529445567353   -1.66345403096113
C          -8.55767508864438    8.12323564258026   -1.11029858862707
C          -8.00137176968849   11.00779873077311   -3.48867102772711
C          -6.98180473624344   10.94161945820455   -4.45580143983422
C          -6.17043764827250    9.67424072903884   -4.29595294869737
C          -4.74840596545167   10.10234612585469   -3.86013838469634
C          -3.79597676202544    8.97267606743378   -3.49308387529788
C          -6.13582784950419    8.83493790005042   -5.58193997329742
C          -7.53158467235025    8.53385810665110   -6.11613100196427
C          -6.80850844212363   11.96434366686172   -5.35146317047894
C          -7.65323784990281   13.09020348458866   -5.30822976881377
C          -8.66497423725095   13.13873367418315   -4.33448723988249
C          -8.84374884283363   12.11266944074051   -3.43225018561528
C          -7.41811664690557   14.12962720800167   -6.26805095571908
C          -8.07558719585321   15.31199280449855   -6.39768675228839
C          -7.80009542606592   16.31742945457697   -7.35299629838216
C          -6.84408163783888   16.35197097415972   -8.33708270634771
C          -6.65008863751997   17.42678338727939   -9.24807843097316
C          -5.63988727374151   17.24816954358357  -10.14130466180906
C          -4.96485333977858   16.01390118256022   -9.99647095994686
S          -5.66527574846224   15.09753779991317   -8.68293447926346
C          -3.90925587871768   15.49565009955610  -10.71378458427540
C          -3.19666346644003   16.05063767524131  -11.80134587006422
C          -2.20310267960809   15.25238976213943  -12.27468674620321
C          -2.06517635974630   14.01110472915031  -11.59085090801790
S          -3.26211896723439   13.91351120563532  -10.31511061221261
C          -1.15333050262316   13.03313145431174  -11.86641542100398
C          -1.01891626964108   11.79612932710300  -11.18491697270518
O          -0.03958037882790   10.94264353280881  -11.61343812400494
C          -0.07267807067080    9.85200958550194  -10.85936274288187
C          -1.07270272652696    9.96390007489958   -9.92004016152167
C          -1.69051906870636   11.22125687545242  -10.12457332082595
N          -1.41674691527180    9.00584225726610   -8.93797529395851
O          -0.76985592915912    7.97714998848683   -8.90966498632250
O          -2.33250951031689    9.27152716205632   -8.18680567037543
H          -1.92574745982825    1.41869209618318   -2.58663269040803
H          -1.72127853138992   -2.79770289869958    0.11267375353628
H           1.87520344357714   -1.71803096551063   -3.65725559186903
H           0.37504625065021    0.41232682742990   -3.84088558342114
H          -6.16684096988251    0.03450697283582    1.84135147934137
H          -8.83570438548183    5.80083450760585    0.39190552975121
H          -6.42960917645209    5.45839450791018   -1.47068195549934
H          -5.95859967667960    7.07557349004496   -3.02750375314283
H          -9.57694138619719    9.99303203851279   -1.29574372707141
H          -9.18375736079903    7.78946912293707   -0.29780213954451
H          -4.84807647091001   10.77308748791202   -3.00198594627240
H          -4.31350735455589   10.67624863397712   -4.68083237614313
H          -4.15183068853436    8.42622792408904   -2.62387341200307
H          -2.82227866153804    9.39293597138424   -3.25059201446068
H          -3.66417639226354    8.28311278984193   -4.32186968597312
H          -5.62396395887278    7.89409479696731   -5.37883121650600
H          -5.56052023353322    9.37049807531052   -6.33907206234594
H          -8.11635967612607    7.98803745330005   -5.37813944561882
H          -7.46355257540815    7.92839287248285   -7.01679299708304
H          -8.06007183684582    9.45318097580907   -6.35930373849310
H          -6.02954369958083   11.91938243251105   -6.09885833347013
H          -9.31905601802753   13.99582466888856   -4.29163291250544
H          -9.62778322185401   12.16712927572649   -2.69160962847354
H          -6.60843883846025   13.91487967779861   -6.94962241285443
H          -8.88848899425677   15.53898281715628   -5.72121513681751
H          -8.43117482785800   17.19703081357682   -7.30636358322615
H          -7.27243476622685   18.30391844196176   -9.20854401710032
H          -5.36183610514819   17.96247146922824  -10.89546616528448
H          -3.43874868827121   17.01964966772777  -12.20022099065541
H          -1.55684458238215   15.50627211646276  -13.09609348853010
H          -0.45872934118768   13.19624236518062  -12.67765788914510
H           0.62956298153488    9.06526864982373  -11.05162759751400
H          -2.50627371097353   11.61261465973952   -9.55682824324959
