84
 SCF done       -166.086101899544          0.000615225256
C          -2.33631484133945   -0.69060381497982    0.77276819432611
C          -2.67998826635788   -1.96384278522394    0.36762468403467
C          -1.80840410175333   -3.06509454769424    0.30898207821795
N          -1.19841894729235   -4.03690591988322    0.21952117112465
C          -3.94700082987562   -2.39487128632880   -0.06209165677458
N          -4.91764799507031   -2.88622565643734   -0.44012674586872
C          -0.99997414261261   -0.28044531537573    1.19373606261288
C          -1.03337587101048    1.09662047426125    1.52603545408562
C           0.07798226120770    1.77679961927774    1.95597000942584
C           1.27916149472311    1.06556540793030    2.06441829414457
C           1.30069676555748   -0.30787428105087    1.73129669095148
C           0.17460219563148   -0.99789014682060    1.29452264847515
S           2.88779327888292   -0.98103923540612    1.94116395605192
C           3.49567902468673    0.55255159767617    2.46243617606187
C           2.56011254249396    1.52661030790737    2.48073639307648
C          -2.40755336291579    1.60839914695738    1.32830106179094
O          -2.78952399288508    2.74712665621496    1.52070090391095
C          -3.19462316906359    0.45483878971865    0.85659016830772
C          -4.54402789276752    0.48359000983869    0.55122216500584
C          -5.38238552464382    1.58473468233110    0.63155871096340
C          -6.72621121890878    1.50030705854531    0.29420250732754
C          -7.69764551159230    2.52057597199992    0.32039004529428
C          -8.94512504114842    2.11750939974114   -0.07985939306082
C          -9.00830968397796    0.76091883699292   -0.43841693822918
S          -7.44415183613341    0.00443318132476   -0.25383815526589
C         -10.07828076348726   -0.00170871480105   -0.89302538610458
C         -11.41840688813161    0.35437672530666   -1.13282334410333
C         -12.18519063557816   -0.68228516593918   -1.58975291645485
C         -11.48763558846369   -1.90255357404607   -1.73211820424297
S          -9.81762458500241   -1.68703686594450   -1.25954406054866
C         -11.99562262673657   -3.10648259160893   -2.17688137422226
C         -11.28057152371866   -4.29543103014246   -2.31371786038642
S          -9.59047743130981   -4.45144835223570   -1.92126143465499
C          -9.54773594246551   -6.13254003511030   -2.37046926253926
C         -10.81462695271256   -6.54609823973372   -2.81066406210394
C         -11.76907714040960   -5.53200403161855   -2.77701538755582
S         -13.45849156675405   -5.65221292834024   -3.23834323384416
C         -13.80344359039061   -7.28761642661132   -3.81164061144764
O         -14.93015229516061   -7.50944603055685   -4.16240705855347
C         -12.76816360652886   -8.38606395198843   -3.87393466732862
O         -13.07904655013099   -9.46753368115207   -4.29536441306090
S         -11.09227499806750   -8.19696315804675   -3.34952846256625
C          -8.29996862976814   -6.76335907180484   -2.22364128277818
C          -7.95787498701069   -8.05936474407082   -2.47811243244823
C          -6.65832012873237   -8.57411308192513   -2.29839085198685
S          -6.35356013269742  -10.26919613241530   -2.59085091846826
C          -4.67611156484184  -10.09868778792373   -2.17894720620717
C          -4.37363302951179   -8.78782884908017   -1.83082835299860
C          -5.48103615717355   -7.92281375976189   -1.91012474289926
O          -5.47745308103616   -6.59878199022761   -1.65628959625940
C          -4.21877303345964   -5.95864809520934   -1.54332265739091
C          -3.28712451582451   -6.67432587538337   -0.58487276135148
S          -2.77900647338710   -8.27315434285360   -1.30395625690475
C          -3.82108709964204  -11.22361231508447   -2.23202009362556
S          -2.12212218750632  -11.18232967536517   -1.85884614488347
C          -1.96879666619054  -12.86056589741519   -2.18020298530865
C          -3.14988820462855  -13.43499931152712   -2.55420031380624
C          -4.21391114504326  -12.50435613025560   -2.59584175728674
O          -5.50381730179229  -12.75116794840737   -2.92850710615413
C          -5.75182662078517  -13.98197720303289   -3.57759691768851
C          -5.17129037910271  -15.16345985146260   -2.81691650676793
S          -3.34797600712617  -15.14256404359254   -2.92572127955606
H           0.02550761876858    2.82619976051738    2.20166534785526
H           0.23888367129076   -2.04583720341114    1.05103249522795
H           4.53248250420732    0.62904593392037    2.72667693933062
H           2.75447305070439    2.54180946947849    2.77645736034124
H          -4.99747019204047   -0.44227804047889    0.21556427272184
H          -4.98745163063731    2.53409071609143    0.96190323360723
H          -7.45328858205275    3.52074692499025    0.63134927398862
H          -9.80510486545332    2.76196479332711   -0.12298624990461
H         -11.78425454208979    1.35181150287050   -0.96769416469638
H         -13.23091541528500   -0.60298481496699   -1.82923387352095
H         -13.04272813611715   -3.13493247306454   -2.44867922864392
H          -7.52573682647312   -6.10633074940906   -1.85531751414444
H          -8.69238952567337   -8.76706724045292   -2.83360812331738
H          -4.45481184843491   -4.95365697473259   -1.18081619572112
H          -3.75015033625408   -5.88516847741552   -2.53317328996459
H          -2.37573755226176   -6.10141639968735   -0.42408022536692
H          -3.78042162904430   -6.86429395744530    0.36848093488932
H          -1.02084932761321  -13.34649261663542   -2.07416684897614
H          -6.84081022581196  -14.05527071042375   -3.63022661783569
H          -5.34180385996329  -13.95844436758723   -4.59631422821503
H          -5.49257187795929  -16.10526403299740   -3.25532060787638
H          -5.45727577586747  -15.12418503469330   -1.76541527136106
