120
 SCF done       -211.166325236783          0.000402897742
C          -2.60650449432097   -0.97044716053076   -0.66546537303430
C          -3.08347173376738   -2.20523915735703   -1.01761038736551
C          -2.26771140930269   -3.33548952316810   -1.23230593536390
N          -1.65167420172521   -4.28690421349942   -1.41435517353872
C          -4.44274087019171   -2.49953177271188   -1.25799609047116
N          -5.52205047306439   -2.80587450445680   -1.50123478042013
C          -1.20599255100135   -0.59709184266011   -0.52896612974625
C          -1.12736470600993    0.80189524050696   -0.31244564775851
C           0.06921903841734    1.45757076865270   -0.14825670066618
C           1.24311321288969    0.70071068010193   -0.20518692200115
C           1.15429083414119   -0.69611624745228   -0.41861140724916
C          -0.05517291034258   -1.36104136693366   -0.58132951857947
S           2.72717591551866   -1.42910822963464   -0.44152344230770
C           3.47433192253360    0.10764412912858   -0.17332178104121
C           2.59436700345328    1.12735031268505   -0.06988862487054
C          -2.48372752937058    1.37540814350276   -0.26673111664766
O          -2.76848236629518    2.52421099623864   -0.00217232650648
C          -3.40697648364943    0.22490062809215   -0.46971233335192
C          -4.75187127701191    0.27731435205129   -0.28285823620391
C          -5.51769128504236    1.48470995172022   -0.26232095721310
C          -6.59851634820487    1.64298245120058    0.62666516700715
C          -7.31203526275716    2.89154849928964    0.74117040397341
N          -8.34317086627691    2.98584851150862    1.59644555965556
C          -8.65090880905312    1.96064146942691    2.35038264862369
C          -7.89829868044484    0.74043862936711    2.27886125531387
N          -6.91414738201644    0.60853715621483    1.42801194975319
C          -8.23148396916383   -0.34136873667479    3.13295746071913
N          -8.52585790275073   -1.18455037252258    3.85001568762069
C          -9.74673564845144    2.06742967500504    3.24242429773613
N         -10.62024180362575    2.12532186303311    3.98143386736021
C          -6.98035931665952    4.01970753645205   -0.04611632906573
C          -5.99364707964774    3.80883784045454   -1.02861938249796
C          -5.26907376398792    2.56137446088638   -1.13213302150040
N          -4.39448355328068    2.57493374596068   -2.13831048647798
S          -4.42908569855134    4.01424072188155   -2.83562174166332
N          -5.56890213963759    4.69194635591112   -1.94028407191645
C          -7.58515023843878    5.31911963609623    0.16236770808649
C          -7.79814487730654    6.17792329747059   -0.92887564544621
C          -8.30446404806952    7.43214227723769   -0.70964320680319
C          -8.60713819484138    7.86879482109185    0.59341218181319
C          -8.42231412654706    7.01842309376542    1.67636625445112
C          -7.91759416354527    5.75543585827761    1.45404230924888
C          -9.02579824734033    9.24769695417863    0.52751124636703
C          -8.99366604100256    9.66600564104495   -0.81725904822454
C          -8.62753005300585    8.51077230413227   -1.72134937051554
C          -7.43320257758545    8.83003071031123   -2.63150078456488
C          -6.17257912837267    9.15901195800460   -1.84000800361856
C          -9.84889343549287    8.01609206708655   -2.53277649450436
C         -10.45231030195522    9.02866699273962   -3.49693402260723
C          -9.23944013372125   10.97873228719533   -1.13531271836270
C          -9.53518447735668   11.90422618576058   -0.11987853908470
C          -9.61404389382873   11.45644014311866    1.20726126362102
C          -9.35964235311887   10.14282993549870    1.53645870541535
C          -9.72510964950496   13.28498198599823   -0.48688057726036
C          -9.67393138490377   14.33471542967228    0.35997072655797
C          -9.82728665984402   15.70151174987981    0.00336625191990
S          -9.26061409718954   16.90343045727210    1.13099691993701
C          -9.69099388174547   18.20301613624522    0.06748844386921
C         -10.27059374466428   17.71234686711497   -1.09530620172030
C         -10.36177562577343   16.30274688451409   -1.12751944475178
S         -11.14067597094649   15.35752447084079   -2.39811296284964
C         -12.29096574079877   16.59880250508142   -3.10483419377325
C         -11.44683414009786   17.39226306733174   -4.06003304891931
O         -11.47973159149860   17.25418517133319   -5.25402907807959
C         -10.44832871409628   18.32641497253080   -3.38773248949957
O         -10.71604928547496   18.60736275880747   -2.03366552139271
C          -9.44492920215676   19.56863193765686    0.36864807894640
C          -8.84595868687216   19.99419553024720    1.50300770724242
C          -8.54429595603828   21.34874728427394    1.82920883430719
C          -7.91132165427484   21.76802708164216    2.99294423376904
C          -7.76868938434920   23.18417730099943    2.95466424464459
C          -7.21333685192272   24.07404015960599    3.84253589842986
C          -7.22625688577223   25.43633451687919    3.49515629712756
C          -6.75232400777575   26.56014263838142    4.15845437025465
C          -7.01569683475558   27.71812076859162    3.36224581986565
C          -7.65390501496306   27.30451078812457    2.20669073110627
C          -7.80709242319505   25.88315104386221    2.24513830653939
C          -8.36265125917752   24.99806808381941    1.35871916987088
C          -8.34896676900784   23.63106800289963    1.70408486604458
C          -8.81432201322863   22.51117615442523    1.03502978217776
C          -6.68330426468974   29.08508178051322    3.68470312755425
C          -6.06980162626048   29.49266740466176    4.79235263448482
H           0.09695954161523    2.52341224108129    0.01803167694224
H          -0.07255436855013   -2.42756590542128   -0.73251073379129
H           4.54408941957722    0.15260172289384   -0.10773095186909
H           2.87593047252171    2.15114636191595    0.09821625654388
H          -5.30815423617147   -0.62957257333078   -0.08236960292582
H          -7.56228937444029    5.83825537568434   -1.92410635909823
H          -8.64941314754161    7.34529533847541    2.67970473771550
H          -7.73375939199502    5.10377054785878    2.29289056820756
H          -7.68638701623385    9.67910675270297   -3.26749710503951
H          -7.24107966833298    7.97003409231230   -3.27582867208852
H          -6.34746289449812   10.00116058574879   -1.17346932807962
H          -5.36251209149534    9.41873163470308   -2.51759462656416
H          -5.86055391183521    8.30542669380959   -1.24299162819598
H         -10.61994999877021    7.70575917955232   -1.82262320777005
H          -9.53861006776132    7.12968412275546   -3.09050758171204
H         -10.84256191012597    9.88967701269296   -2.96128615974762
H         -11.27590112401212    8.56497016229135   -4.03562731079190
H          -9.72156916682540    9.36652975372232   -4.22684114710212
H          -9.17499304376479   11.32873453332880   -2.15487445434158
H          -9.87994197110526   12.15361440035556    1.98654278996410
H          -9.40713623198732    9.81683992855999    2.56464791992201
H          -9.85676843269677   13.47196869509960   -1.54404525527558
H          -9.43847199421092   14.17429737311123    1.40332964383875
H         -12.71065883045923   17.19403606159248   -2.29665744034891
H         -13.06305735200087   16.03783664433247   -3.62774299051561
H         -10.47631596493694   19.28889658731909   -3.90793584406703
H          -9.44185999018917   17.90313993828743   -3.51999810038794
H          -9.76355879256805   20.26563545973860   -0.39282120367730
H          -8.55284254709619   19.25380798635502    2.23825723352443
H          -7.57905041470635   21.13193713530805    3.79282793643581
H          -6.77802880971934   23.74775109969488    4.77674571998572
H          -6.26502410191304   26.56221164432525    5.11628349662199
H          -7.98438866761702   27.93887173603123    1.40431914738953
H          -8.79754491252628   25.32360841490128    0.42395884768837
H          -9.29913958942867   22.50895450691482    0.07588824419276
H          -6.97410187978258   29.81200205028064    2.93630890906340
H          -5.76195077923410   28.80887062897733    5.56468917084678
H          -5.85364455798460   30.53251398837565    4.96553226250479
