116
 SCF done       -195.120450290871          0.000513085418
C          -8.04191722357227    0.69624567854751   -5.60768512817280
C          -9.30543646555449    0.61777714821096   -6.12404894016437
C          -9.68706434278744   -0.27446379068641   -7.14894910647183
N         -10.05449423693674   -0.97458778699870   -7.98095112238322
C         -10.40740526507986    1.38603171885796   -5.68946679968572
N         -11.35496019414969    1.95887368260683   -5.38711731146122
C          -6.90829097670120   -0.13367039232920   -5.97943398731559
C          -5.81980888695466    0.15314885928993   -5.11461378141461
C          -4.60484895697709   -0.48246861804919   -5.21899782509024
C          -4.45270056821985   -1.44228120442734   -6.22296208392565
C          -5.54280499804320   -1.71896486949288   -7.08467148006705
C          -6.77143951890665   -1.08033028517184   -6.97940628574654
S          -5.12685414467449   -2.93178450395583   -8.25391010670636
C          -3.53327203983689   -3.05698805923015   -7.59317490067549
C          -3.31381494440924   -2.23242236618490   -6.54581820181658
C          -6.21155617020094    1.19922621366354   -4.16025635038085
O          -5.52745823267593    1.67342477095345   -3.27730730883343
C          -7.60167511169724    1.58502750215039   -4.53461675679807
C          -8.25708796828460    2.63784834468237   -4.01801912580951
C          -7.72041756349546    3.43828346252339   -2.88572110774975
C          -8.33320027581522    4.79181242373021   -2.74209863391234
N          -8.88596210972018    5.47530580047329   -3.71661017270864
S          -9.43241631063667    6.88969520780687   -3.12828670346622
N          -8.96340855365935    6.64770114690362   -1.58846014303180
C          -8.37943828527443    5.47685887390385   -1.49752330749258
C          -7.77200729871780    4.90695223911621   -0.25343110682605
C          -7.94743320801764    3.42879184614813   -0.33710510845228
C          -7.92903264159091    2.72931933383981   -1.57578757119222
N          -8.11359272921407    1.43921034921279   -1.43641357486580
S          -8.29173770289871    1.10165193354791    0.14557911577684
N          -8.14250430234612    2.62978656835571    0.68376812827717
C          -6.30688424247363    5.32291073017572   -0.25887570276603
C          -5.29006601562186    4.41398365848736   -0.53350673629683
C          -3.98864242298004    4.86261220933093   -0.57805668234511
C          -3.68724285290373    6.21528163389088   -0.36173765458663
C          -4.70140823507671    7.12147973979485   -0.09103842548426
C          -6.00611085044621    6.66440248803531   -0.04312301087120
C          -2.25236444164710    6.38712282208926   -0.47148587630202
C          -1.67197834521103    5.13443900148134   -0.73980340819362
C          -2.73669670369397    4.06856787294420   -0.85763253557357
C          -2.53835026750977    2.94307814121259    0.17282191528281
C          -2.50883347655894    3.45586370694310    1.60750611364938
C          -2.77098058803003    3.46626119157662   -2.27604588027572
C          -2.95535679792681    4.51868389380489   -3.36298794589286
C          -0.31272546663393    5.00159204176427   -0.86520423695665
C           0.51122235804600    6.13392632791005   -0.74095134016537
C          -0.08957394739482    7.38233841731080   -0.51170471180984
C          -1.45455162673160    7.51707557888516   -0.36472677318316
C           1.94275121768579    6.05704796896822   -0.84115885026099
C           2.68650296855600    4.92361414975449   -0.76070563928613
C           4.09059932499857    4.89420550019405   -0.85390734316645
C           4.84596086740428    3.76341045125541   -0.67811156989158
C           6.25481413111780    3.64551215583755   -0.76238982280013
C           6.73135901475737    2.39467017689756   -0.50951885654358
C           5.72901803541276    1.44918736918235   -0.20186988148151
S           4.14864636103477    2.20057667593108   -0.26897608519253
C           5.88624748471040    0.12052588669149    0.14209633854611
C           7.08399992223508   -0.62090311182990    0.23976682990903
C           6.90324725409573   -1.90973334125888    0.63862503990343
C           5.55414455150037   -2.27225458505738    0.88749004881149
S           4.51954824884685   -0.88668511712019    0.56385594341058
C           5.14021473972030   -3.50022781106540    1.33354534109185
C           3.83840297924415   -3.95025027494999    1.64164347581303
C           3.54474487659044   -5.21400471865942    2.15883343263633
C           2.14572841775956   -5.31171873208230    2.36815904423387
C           1.35772834762811   -6.32097645103821    2.87081141869424
C          -0.02670089969453   -6.08869015071166    2.95964583818883
C          -1.06460090184657   -6.88219993913068    3.41986865637328
C          -2.29699043724086   -6.16169227206395    3.29144552498543
C          -2.01387982994856   -4.92295409614312    2.75065726585586
C          -0.60349099637395   -4.82729808087330    2.52700980633034
C           0.17528107686152   -3.82046102041816    2.02767391398767
C           1.56753243675119   -4.04753578502030    1.94545073735801
C           2.59535219020212   -3.23654771147356    1.51124665990799
C          -3.61266624932426   -6.62719415980674    3.65747716519939
C          -3.89503715818116   -7.81083988766946    4.19502880578601
H          -3.79635765581531   -0.24303865709430   -4.54561662112970
H          -7.56885292039987   -1.32194860792371   -7.66215550407569
H          -2.84781680493593   -3.75188935545116   -8.03809952133969
H          -2.38360668375733   -2.17358201218116   -6.01035278393300
H          -9.22380897936120    2.94064865344542   -4.39341001535686
H          -6.62976746703485    3.54940425772821   -3.00662832883535
H          -8.26176737581875    5.30641276607929    0.63817083710651
H          -5.50709590165270    3.36981487864896   -0.70218965392039
H          -4.48248810567470    8.16490225841761    0.07849609169313
H          -6.81381784327207    7.35410323444962    0.15433614527077
H          -1.60056385488702    2.42856168997901   -0.04760563656888
H          -3.34975446421662    2.22102913468128    0.05993144572403
H          -1.69948265819565    4.17023693686363    1.74257087946686
H          -2.35753483625185    2.62950533684777    2.29832780211304
H          -3.44585707883737    3.94791774536513    1.85897331255986
H          -3.58875291750676    2.74605946482485   -2.33324049383623
H          -1.83523771592173    2.93012320781530   -2.44914707337579
H          -3.88126122359209    5.07021834479087   -3.21213331187201
H          -2.99664453428555    4.04162801002393   -4.33981169829252
H          -2.13106447661631    5.22899948230029   -3.35970356129304
H           0.12411390992828    4.03766487101161   -1.07627141918301
H           0.54386443538982    8.25447926860404   -0.43014439845150
H          -1.89231579413368    8.48544214412927   -0.17231373697247
H           2.46177214299849    7.00167571993203   -0.95186656336411
H           2.20304024827350    3.97084589070047   -0.58913916583688
H           4.61426542765689    5.81654850488500   -1.06914088598893
H           6.87092262434095    4.49335629658525   -1.00588040353136
H           7.77354040288846    2.12966718805846   -0.52687941829940
H           8.04123822853482   -0.18493389249829    0.01628743644329
H           7.70100637495532   -2.61973322380085    0.77146550025462
H           5.93006283743937   -4.22604585075720    1.49069268394858
H           4.26122523761933   -5.98584018513446    2.37263674480991
H           1.77894900502416   -7.26307126817443    3.19264347614238
H          -0.96639875585532   -7.87802497182790    3.81158485115052
H          -2.72600934506107   -4.14843985785149    2.53092102716334
H          -0.24318840645596   -2.87662899084480    1.70716071614472
H           2.48817163612289   -2.23665770179209    1.13448444523793
H          -4.41314108527647   -5.92277341392480    3.46615420205370
H          -3.13399765143452   -8.54161886713677    4.40873163095327
H          -4.90388080034047   -8.08884220222190    4.44661740898309
