102
 SCF done       -188.283305199371          0.000376119052
C         -13.98083775937388   -2.46392512274163  -12.64636652113997
C         -13.34647507866820   -3.54627149477302  -12.07396069927189
C         -12.93510775684339   -4.68872532358362  -12.78638024358142
N         -12.57448727374000   -5.64963941560485  -13.30364247412023
C         -13.00683492763990   -3.67829889096728  -10.71421494558626
N         -12.69214022485421   -3.87230946788009   -9.62528596867864
C         -14.31283861460081   -2.34043478383648  -14.06501826782520
C         -14.93090067153109   -1.08296199366508  -14.27635568394159
C         -15.36847137019297   -0.67081557273611  -15.51054826983171
C         -15.19056594720873   -1.54129278347150  -16.59140477244789
C         -14.57244181118541   -2.79335995413414  -16.37125149005494
C         -14.12732967281713   -3.21027697723641  -15.12073212602142
S         -14.45946352397015   -3.70583887283684  -17.84385118996743
C         -15.22613971410670   -2.42800535479889  -18.72325526055653
C         -15.55353963203103   -1.36523300636621  -17.95675929525789
C         -15.01512721570407   -0.36147177592436  -12.99147476201341
O         -15.48240253531693    0.74887118875882  -12.81793148705021
C         -14.42622957208877   -1.26831009518860  -11.98570564833000
C         -14.36522271065722   -1.00068260309271  -10.62724758280618
C         -14.82423876615158    0.15981218274059  -10.02623975054953
C         -14.80634501980708    0.35930175727581   -8.65029210073388
C         -15.28756730797750    1.47597188346688   -7.95080170733712
C         -15.18543324494186    1.36451687409253   -6.58389171509775
C         -14.61386142994740    0.15864832358770   -6.16484303915127
S         -14.19182344028403   -0.83549724412436   -7.52877626451531
C         -14.41235543433205   -0.29201253230556   -4.84986814357744
C         -14.79431753326670    0.31972052998561   -3.65718420830315
C         -14.50650992049314   -0.43567708796595   -2.53638369651781
C         -13.88120140837398   -1.64736476358528   -2.81874784543732
S         -13.65164302662985   -1.82699380119916   -4.53725114694056
C         -13.50789987304498   -2.64876452141394   -1.90279906511523
C         -12.84004993377674   -3.78584676543567   -2.24469680002651
C         -12.54267420031402   -4.84825391291744   -1.37129839263477
C         -11.82716937591184   -5.99932713134511   -1.67868270238535
C         -11.75404776911864   -6.90817101239853   -0.63741407917739
C         -12.42075500973563   -6.49111453084824    0.50838292307524
S         -13.11888808896275   -4.91389059035279    0.27414771080941
C         -12.61060241623152   -7.21580088840252    1.70406217167860
C         -12.16129506466245   -8.49767209704934    1.99743754275289
C         -12.59408479091782   -8.96508358697609    3.22616456057171
C         -13.38526603510600   -8.06122196686802    3.92522726418901
S         -13.56767579556528   -6.58469205483463    3.01392889313097
C         -14.01768556097984   -8.28071648730420    5.16277765877432
C         -14.77099491895803   -7.36603799089820    5.83515933506123
C         -15.47006480696140   -7.63835862261509    7.02552095008376
C         -16.22435071392411   -6.74588357547121    7.78263984425285
C         -16.83856623810577   -7.32076877288156    8.87869782204689
C         -16.58777433727529   -8.68632897542510    9.00210756873005
S         -15.53787715192765   -9.23444259057234    7.72468991156170
C         -17.09884062474093   -9.58065833281302    9.95617682345005
C         -17.94390603012421   -9.29562583934106   11.03353152047486
C         -18.30709666715389  -10.40813844022794   11.75522253686327
C         -17.76072601082805  -11.60451874159798   11.26871205929796
S         -16.75894953915271  -11.28584708668110    9.87345869283815
C         -17.99608665914281  -12.88734436333785   11.75084019969525
C         -17.42130177215461  -14.02701610492864   11.21640547973316
C         -17.67421125830202  -15.34442821325450   11.55732402478723
C         -18.74942594390943  -15.95453350629844   12.28124387024932
C         -20.03094471122998  -15.46690975178031   12.43202785961625
C         -21.05124889965849  -16.14012109075665   13.12869763336792
N         -21.91663257592930  -16.63003895447431   13.70473255095831
C         -20.51702881587285  -14.30104205225515   11.81131118262656
N         -20.98787572233216  -13.38835092785709   11.29532810855003
C         -18.32321559375869  -17.30703589553893   12.64359320780750
C         -17.09504886528432  -17.58274181394206   11.98997720127242
C         -16.67048337462821  -16.38409399190587   11.23919510451563
O         -15.68837172589687  -16.25713345664570   10.53741895444445
C         -16.45918594046310  -18.79460898335660   12.09726363527068
C         -17.05542621996910  -19.77774686532571   12.89500909316034
C         -18.27111846323085  -19.48662639518055   13.55507589614867
C         -18.92089533452748  -18.26140978444291   13.44034514670258
S         -18.81812601066368  -20.84179939745679   14.49161061562167
C         -17.44464971525145  -21.77021947889510   13.99584305100385
C         -16.61031481933113  -21.10192150077565   13.17053013335825
H         -15.83645881390531    0.29308561784213  -15.63814807119097
H         -13.66424191442403   -4.17601718897073  -15.00695625660395
H         -15.38658371546135   -2.55578002521006  -19.77614867577028
H         -16.03655099945876   -0.47998252962836  -18.32944982637822
H         -13.94597099808046   -1.75766637632192   -9.97579330016494
H         -15.23777050951446    0.94496092269762  -10.64290023550793
H         -15.70329317377168    2.32604157526885   -8.46151510623771
H         -15.50941821519559    2.12069495440116   -5.89182120496085
H         -15.27974602957754    1.27816904555270   -3.62684145752335
H         -14.73882239332259   -0.13250683399155   -1.53082717539999
H         -13.79245895394483   -2.49048992851130   -0.87002343546406
H         -12.51793090151679   -3.91440858782592   -3.27076547003800
H         -11.38366872604800   -6.15577576909257   -2.64578609366252
H         -11.24665471578635   -7.85315095539968   -0.70302484803284
H         -11.54776439928550   -9.06675595647399    1.32329393746289
H         -12.35659073074533   -9.93859148865505    3.61660420131939
H         -13.89792780740037   -9.27076332635410    5.58539868378518
H         -14.86547809130969   -6.36289023808458    5.43850071262178
H         -16.31244240921873   -5.70642534979152    7.52044878272570
H         -17.46247223127212   -6.78184260651976    9.56812151449194
H         -18.27205998044576   -8.29756866394228   11.26076908487614
H         -18.96213567768230  -10.39145458349699   12.60757380146199
H         -18.66029661306816  -12.96351778474636   12.59973725141740
H         -16.61900794400368  -13.89398049558985   10.49604208809989
H         -15.53044780977540  -18.98063832185028   11.58043399219551
H         -19.84517878406309  -18.08604123175599   13.96547906638171
H         -17.34726622215467  -22.77444999552822   14.36008214457827
H         -15.70707531992303  -21.51764065537250   12.76166450182362
