107
 SCF done       -194.292827111480          0.005202146130
C         -11.64742893828478    1.03850327043111   -0.36352034039788
C         -12.65027970775786    1.32890801776105   -1.25288372901423
C         -13.99662930201647    0.95247616743794   -1.07252041737136
N         -15.10543389782256    0.66992597563534   -0.97875587931679
C         -12.46419027882990    1.99010236681111   -2.48404184349631
N         -12.37790899109585    2.51567252100224   -3.50143568315872
C         -11.80341412512135    0.31646611000371    0.89488312019005
C         -10.51932807459461    0.04456089891712    1.43249282414378
C         -10.34092777550181   -0.61642838084349    2.62252176161626
C         -11.48171072217406   -0.99796435779252    3.33464109854554
C         -12.75919315667066   -0.71419159293336    2.79532041135241
C         -12.94117281614601   -0.06857105515544    1.57850943605712
S         -14.02144745926306   -1.26771366296372    3.84919185350043
C         -12.85303933836648   -1.85930356529347    4.97923054097416
C         -11.57490535629485   -1.65696907602069    4.59199614220635
C          -9.49483434875264    0.58094935548903    0.51928758505114
O          -8.31747644669734    0.28285629980221    0.48722664025201
C         -10.24875290865019    1.39719485238489   -0.47571079919923
C          -9.69342435052251    2.34973134177592   -1.27958174878252
C          -8.44261088100529    2.96524717835959   -1.01670701107133
C          -7.92590190400266    3.09262001739947    0.29771930264110
C          -6.63295041546096    3.66435199873900    0.55944834116415
N          -6.13333406336991    3.62157671575350    1.79415814391180
C          -6.85461081090470    3.12514061588918    2.77660943370577
C          -8.21457684025584    2.75171366531362    2.54843200669014
N          -8.70075230167767    2.74015125469405    1.33225428871662
C          -9.06455316294873    2.38880761427790    3.62103605746182
N          -9.72755776969270    2.07121799155961    4.49863785005352
C          -6.29168762745402    3.01535931999620    4.06916251346993
N          -5.88086450923200    2.91112651334635    5.13413612629401
C          -5.84615167854272    4.27589680991648   -0.47353033176763
C          -6.45038171769273    4.27833825260853   -1.75721669372099
C          -7.70688098093689    3.62614151482553   -2.02475424879626
N          -8.05308538459588    3.73254459278377   -3.30700171628392
S          -6.94383471381266    4.57897795624282   -4.10140239077350
N          -5.95592206371982    4.83467142458202   -2.85837252110903
C          -4.58077913317020    4.77073354059079   -0.14149307303725
C          -3.62532967422915    5.40987450620308   -0.90976305154885
C          -2.34926769659530    5.78007119914535   -0.41069471450826
C          -1.51671089397886    6.34747013564083   -1.33224389850293
C          -2.11984709170402    6.47539071216892   -2.59627710545538
S          -3.75929830309449    5.86136622864166   -2.58451857624098
C          -1.61612078346586    6.89009810836624   -3.81830474509316
C          -0.28430095208029    7.05549952560538   -4.26390875664602
C          -0.17652466826660    7.20803361190889   -5.61125616801545
C          -1.42378833699325    7.20298525225333   -6.30521338057982
S          -2.73514825138239    7.07524086459031   -5.14050573107644
C          -1.60326015740695    7.30611946483520   -7.64959877096172
C          -2.84491739884122    7.34261053601217   -8.37051212951601
C          -2.94376970659067    8.08101222427450   -9.52782427096231
S          -4.52545891797222    8.13756527374906  -10.16898801464572
C          -5.09750310231401    7.13067993242120   -8.91084307640364
C          -4.11840328887222    6.76458388905111   -8.03527062610124
C          -4.43780293192972    5.75455957326012   -6.99644736652146
O          -5.47460061481352    5.72674133625503   -6.38146060681596
O          -3.45402233194832    4.85235753371992   -6.89804965548493
C          -3.53532016344980    3.82569522870783   -5.95679583463171
C          -2.37543808328789    3.57140374620941   -5.22926713807698
C          -2.38175763301254    2.54008546271776   -4.31715429166447
C          -3.56368948246058    1.81660650126704   -4.08520703451720
C          -4.70969619000359    2.07448950028398   -4.81800994733017
C          -4.68691795689579    3.07397035409887   -5.77698775087602
C          -3.30829499779719    0.83710744114019   -3.04764182409638
C          -1.96362069188383    0.93822969756851   -2.65741487290710
C          -1.26615948304922    2.05326592869823   -3.41397989424984
C          -0.07823154830697    1.45410503866986   -4.19384368839957
C           0.73630395338945    2.42916233934925   -5.03524335378397
C          -0.88139365896942    3.22197419926739   -2.48421569601284
C           0.19512480978021    2.93361889869805   -1.44683790081018
C          -1.44814388365104    0.05194285144310   -1.74030238308749
C          -2.27188302194897   -0.92478108357499   -1.16513028562768
C          -3.61925466034781   -0.97765783062751   -1.53300060875229
C          -4.14053577519811   -0.11230421894013   -2.47413487664506
C          -1.67612563275529   -1.85397515641999   -0.21436382843542
C          -2.26855353526454   -2.88990633482704    0.36879483193264
H          -9.35270494078999   -0.81787556794939    3.00606032782155
H         -13.93483627820329    0.12531643084601    1.20968479604678
H         -13.20230676478918   -2.32782276361584    5.87862732493944
H         -10.71666690706575   -1.95164349202663    5.16784382879346
H         -10.22768780529880    2.72728456563923   -2.14252821735145
H          -4.30773780355078    4.60982703565559    0.89498702225348
H          -2.07929023544468    5.59001451075351    0.61332646332231
H          -0.51352364364838    6.67716228557590   -1.12693581475722
H           0.54968696906335    7.00993659622583   -3.58598552549560
H           0.75442544434400    7.30407447576537   -6.14208670089278
H          -0.71755234271643    7.47090121467574   -8.25012666603022
H          -2.15779291399577    8.63221947653854  -10.00410047654394
H          -6.12431879457996    6.82580575481588   -8.88513030994837
H          -1.50780891950425    4.18759045420721   -5.40470479651197
H          -5.60971700432986    1.50114872434800   -4.65621811570671
H          -5.55824976727924    3.27014219196654   -6.38114193673903
H          -0.47423388126379    0.67152847160444   -4.84678451334162
H           0.58244658061240    0.96991972271559   -3.47457784911606
H           0.14928584868788    2.81987307997146   -5.85983843227144
H           1.59604247202019    1.90999068238468   -5.45556453602451
H           1.10460703126567    3.25907886136948   -4.43749785318857
H          -1.79374922666171    3.52701299958908   -1.96479957183920
H          -0.56358454523795    4.06149436679805   -3.10586096915366
H          -0.14423231417301    2.18848052790693   -0.73356214498051
H           0.41571068929374    3.84714862897503   -0.89734688650776
H           1.11483116376799    2.58739047871875   -1.91160475673663
H          -0.40383894666900    0.08013571226094   -1.46367632358428
H          -4.26440805423035   -1.71567115502684   -1.08718976141690
H          -5.17835885184614   -0.18154320899635   -2.76214250945158
H          -0.63352920453346   -1.66021399065048    0.00835318339226
H          -3.29870934304150   -3.14854261397459    0.19572807560633
H          -1.73419102309611   -3.52537940196090    1.05441361152374
