115
 SCF done       -198.563760461024          0.000477537839
C          -3.30796052120530   -1.20610637085101    1.07239931531937
C          -3.16162711187230   -2.04741149172881    0.00011467289961
C          -2.46885298152007   -3.27430315762675    0.04688414194550
N          -1.91102783867923   -4.27773322599057    0.02497348579128
C          -3.72002179288868   -1.82443394713051   -1.27633205138345
N          -4.17077766190756   -1.73431797508857   -2.32849704846029
C          -2.85486288526147   -1.46380768813381    2.43241751977443
C          -3.33130459188148   -0.42707268585352    3.27343458064881
C          -3.07147325358245   -0.39280874700382    4.62213093660859
C          -2.31102398309337   -1.43106594172798    5.16873834730440
C          -1.83644958363534   -2.45934169789306    4.32008844605171
C          -2.09564528435796   -2.49365140505086    2.95504749410004
S          -0.91086539321719   -3.62925732856889    5.20779456059740
C          -1.16431036480801   -2.75140211474211    6.67673458303237
C          -1.90563839859886   -1.63343986478202    6.51834924522759
C          -4.07914808297353    0.55893831187528    2.47117623344823
O          -4.52349973653511    1.61559280688245    2.86798066171234
C          -4.03548148792916    0.04796856964165    1.07557612283057
C          -4.42674844880329    0.75762780295662   -0.01825023513329
C          -5.28710805343169    1.89450512235600    0.01591752225831
C          -5.09502634420969    2.96941884610367   -0.87691840002371
C          -5.89640819565948    4.16747487272315   -0.81003807244777
N          -5.57109940940567    5.21576247946101   -1.58222684987129
C          -4.58130927024239    5.11216701067021   -2.43587381698345
C          -3.84506643784491    3.88988449314558   -2.56113147352741
N          -4.09629439590303    2.87452483092904   -1.77253109434110
C          -2.82135036286060    3.78506243665871   -3.53526280597963
N          -2.00195292819171    3.75416251630756   -4.33544015816451
C          -4.26917252637109    6.23680701933214   -3.23792245540280
N          -4.02810209303317    7.13606720707517   -3.90630596794044
C          -6.96904185006889    4.30394413512622    0.10489287237121
C          -7.21080628360617    3.19021262387222    0.93183274942421
C          -6.39228427400251    1.99947584087531    0.88235777428516
N          -6.85430973725912    1.04388569777228    1.68726166959753
S          -8.14634423690497    1.59436377999451    2.45898017352848
N          -8.21761637278991    3.05388380837523    1.80164995187053
C          -7.72461463093408    5.53411000249126    0.21389363421685
C          -7.95663374546048    6.34322442107774   -0.91095469528112
C          -8.55205798422855    7.56641952321834   -0.74941824487590
C          -8.95612740293843    8.00967491579803    0.52442224942470
C          -8.78861124517640    7.18804857927713    1.63393436293043
C          -8.17992829115758    5.96312772577179    1.47131535862097
C          -9.47713373828508    9.34682059745102    0.40016070708148
C          -9.38752764865283    9.74183642862362   -0.95046108273245
C          -8.82969004233002    8.61972357256395   -1.79482363062907
C          -7.53816435438958    9.03574691622046   -2.52353842446007
C          -6.43959343913027    9.49405401449088   -1.57297465156041
C          -9.86637666719775    8.13173464187091   -2.82505434163613
C         -11.17841412805904    7.69255934599278   -2.18619044534915
C          -9.76945830573101   10.99741356071936   -1.34194657566645
C         -10.25926829893011   11.90781893677806   -0.38495307631445
C         -10.36767147259753   11.48437692715284    0.95382334984525
C          -9.98271203808838   10.22484486560861    1.35284124570403
C         -10.63325250647313   13.24964588045024   -0.71049693764781
C         -10.51863596328814   13.85600646861680   -1.92489333659724
C         -10.87083838660087   15.19461550469864   -2.15633056732705
C         -10.74019579498507   15.83002407076951   -3.36719018551473
C         -11.05811304696366   17.17761301357158   -3.66189629975862
C         -10.82322908293348   17.53947062274086   -4.95393351187459
C         -10.31009727833508   16.49669771270510   -5.75641768923469
S         -10.12651433049449   15.03660645070877   -4.81098003012516
C          -9.98899743083252   16.53616922442913   -7.09949293714733
C         -10.13295761147043   17.61691253372759   -7.99899179763962
C          -9.75787730002133   17.31877399006737   -9.27150165056871
C          -9.30533024419493   15.98395300969161   -9.45932433295962
S          -9.34986056974991   15.13192990874988   -7.92872780346918
C          -8.84879416714520   15.49004692934724  -10.65360232625572
C          -8.36821845905817   14.21199570591858  -11.01052880360221
O          -7.57910963860877   14.19261961462781  -12.12635233353377
C          -7.11507771898900   12.94300599908259  -12.27463897264722
C          -7.58290516338283   12.11530810829950  -11.29929680611211
C          -7.31319211241973   10.66206270770248  -11.13720696791041
C          -8.43212598221644   12.91772978052117  -10.47668870849406
C          -9.24866395751726   12.39079444750648   -9.42193756088076
C         -10.48927291115015   12.82171522326913   -9.13149095238706
C         -11.32890977089253   12.29546624937782   -8.07896066135982
C         -10.89980383035370   11.63199408006846   -7.00817217775182
H          -3.44551820712488    0.41128810491339    5.23691880319297
H          -1.70534076110095   -3.29353576772816    2.34800603854313
H          -0.73432273298809   -3.13340389334721    7.58221477695118
H          -2.16385780548841   -0.96380610820570    7.31879172406872
H          -4.03248128425570    0.50471983281839   -0.99453117810498
H          -7.66756309834835    5.99909365631663   -1.89010974953423
H          -9.10624308218297    7.51335238785404    2.61323021881240
H          -8.00858390766575    5.33140408329525    2.32792461975349
H          -7.77411449677000    9.84149440641498   -3.22172175591330
H          -7.17289486175928    8.18689911516820   -3.10438155014621
H          -6.76578556023103   10.35185274583594   -0.98805326875158
H          -5.55535259132845    9.77476645529549   -2.13959817376331
H          -6.16614052031555    8.69291855426790   -0.89031610093465
H          -9.43608298670380    7.29610498876675   -3.38061176549662
H         -10.06024944484116    8.93978022069521   -3.53368916867780
H         -11.01152622992875    6.87561506354068   -1.48759662896324
H         -11.87191946419411    7.35339596605605   -2.95236682263129
H         -11.63920700761257    8.51686914189942   -1.64597246352079
H          -9.69211163781438   11.29150893163787   -2.37697750580879
H         -10.75392995178882   12.18044204485918    1.68498578035854
H         -10.06450346570707    9.92655774493287    2.38736760864538
H         -11.02527436465766   13.83992438355838    0.10949036012774
H         -10.12637550879893   13.31245670956092   -2.77369745607035
H         -11.26325056063721   15.77500914129955   -1.33125758230523
H         -11.44992488684985   17.83666040327530   -2.90719402168479
H         -11.00494411920281   18.52242309521849   -5.34983057164029
H         -10.51487510858108   18.57224196109431   -7.68742082129905
H          -9.79948656754880   18.01062062799675  -10.09435028845396
H          -8.75547557251421   16.21597161846713  -11.45352847414507
H          -6.46390758585485   12.75920981074240  -13.10705843176959
H          -6.64859317788637   10.31297915220995  -11.92268151937371
H          -8.24267738647294   10.09621735974215  -11.18353470717200
H          -6.84817802375945   10.46698120335657  -10.17180089854401
H          -8.84140933324898   11.53753421998002   -8.89767525230457
H         -10.93148789419123   13.59076756701529   -9.75186464711421
H         -12.38639567522347   12.50427985697895   -8.18268699085449
H          -9.85459966733392   11.43794484120541   -6.83907331440041
H         -11.58138661555278   11.27843158596024   -6.25405384078890
