119
 SCF done       -205.174206503471          0.000665399837
C          -2.48910841066040   -0.51773742608109   -1.31854040863958
C          -2.44910958900620   -1.72839655689212   -0.67628805896161
C          -1.76341139767143   -2.85931104263236   -1.16476061814913
N          -1.21975165001098   -3.81256803320664   -1.50305652454293
C          -3.04747778165567   -2.00341272486638    0.57057844552699
N          -3.50610435419055   -2.30713872100480    1.57875662527496
C          -1.87391087352147   -0.21245069251051   -2.60484182842187
C          -2.00861655003895    1.17533019451527   -2.86328349350935
C          -1.54629230783486    1.76175922480535   -4.01552966744820
C          -0.94606949353808    0.93742629198825   -4.97146995584545
C          -0.81661209396470   -0.44668322027798   -4.70607144183248
C          -1.26556384302092   -1.03799002352464   -3.53173892945456
S          -0.04937737694381   -1.26926550244167   -6.02757104526351
C           0.08370697168856    0.21457152495738   -6.90682193149550
C          -0.41778525939211    1.28107628132271   -6.24725981255044
C          -2.69450450536675    1.81157596531995   -1.72535035343850
O          -2.71824370751605    2.99730819720066   -1.46318119949305
C          -3.17069415409390    0.68274090552900   -0.87511864929984
C          -4.10928571264530    0.79098513782185    0.10551906998631
C          -5.02544036610373    1.87518097541382    0.20132066019009
C          -5.46453646549969    2.59065832418662   -0.93535867218412
C          -6.32971564999476    3.74132885089206   -0.82138397069150
N          -6.63166924676717    4.43546057956265   -1.92884789582132
C          -6.14235288062066    4.07016094717186   -3.08821142184236
C          -5.40299530716084    2.85180219469691   -3.21350604569519
N          -5.10781133752670    2.14905922127413   -2.14782968309820
C          -4.98500390051790    2.37962600487236   -4.47970174209857
N          -4.61828895208904    2.03934279766169   -5.51117694647161
C          -6.39314848788298    4.88582722110399   -4.21708912039930
N          -6.56168370173094    5.55174063465067   -5.13480742343934
C          -6.87506441216230    4.15461193366289    0.41667898529383
C          -6.55585200451913    3.34249061591997    1.52537196732423
C          -5.63441575428654    2.23217563751143    1.42000436826603
N          -5.41708957845228    1.64733723099520    2.59611544032880
S          -6.28191611495267    2.39930588535230    3.72054278898937
N          -6.96600291692904    3.51123413267011    2.78617452326994
C          -7.69036525669262    5.34684017549748    0.53405938222103
C          -7.46895779700421    6.45569963084782   -0.29952795908820
C          -8.30409031024772    7.53871947655606   -0.21939037572554
C          -9.36692946159829    7.56597037005510    0.70333677700869
C          -9.57181906437715    6.48808952417361    1.55797437570631
C          -8.73590484210038    5.39639919083305    1.47064060433125
C         -10.07129906249044    8.81388565761721    0.55433300949281
C          -9.45436351093162    9.55912162207507   -0.47163718104717
C          -8.27294518503518    8.80667739515095   -1.03766171748232
C          -6.96019311907159    9.58384577153072   -0.82713764344866
C          -6.69639361916235    9.91622997364722    0.63649432343527
C          -8.45561923648292    8.50278853804759   -2.53710230918662
C          -9.72072776753528    7.70705365196527   -2.83246717881019
C          -9.93015892013993   10.79202588774110   -0.82890711458171
C         -11.04653911940963   11.33194901245753   -0.15937435079710
C         -11.64283680710152   10.57620736373909    0.86913527627133
C         -11.17283053293265    9.33309685292496    1.22675223169031
C         -11.59074275262283   12.61569246606016   -0.47519008941183
C         -11.17616024603234   13.44553990105820   -1.47471193651813
C         -11.73658753142810   14.70334979952996   -1.73396886807286
C         -11.31646160959197   15.53135040194880   -2.75036764560500
C         -11.80555745350332   16.81625532758707   -3.07528555751752
C         -11.18387732850145   17.40150046840940   -4.14096663281535
C         -10.17326701199309   16.60807238717187   -4.71792768103560
S         -10.03042733687441   15.09036012190845   -3.86169129275681
C          -9.36219992939888   16.90106114529631   -5.80297812404424
C          -9.33311782081143   18.07386264514273   -6.58419085890416
C          -8.40551190319360   18.04527720938608   -7.58350874761817
C          -7.64987415303690   16.84961147410403   -7.65578282044428
S          -8.17648760644321   15.75870271782171   -6.38309161612817
C          -6.65800680021391   16.59432392894098   -8.57161021684874
C          -5.86602810212559   15.44114178316863   -8.72864102584508
C          -4.84686599961026   15.30925504046289   -9.68167628954352
C          -4.26466898703637   14.02758645640167   -9.55582214226557
C          -3.23593782173562   13.41002744588413  -10.23640200805771
C          -2.89576710878104   12.10311287696141   -9.85854061649958
C          -1.92839203225883   11.22798081759821  -10.33494433645480
C          -2.00305331786478   10.00380990752914   -9.60037422270330
C          -3.01960089057850   10.12357838472205   -8.66888610707545
C          -3.60668798596428   11.42091448330080   -8.78958261602307
C          -4.62599676917517   12.02783880187397   -8.10843555557348
C          -4.96805718384247   13.34654866705351   -8.48163113708351
C          -5.92731640401954   14.20791196165273   -7.99060574262728
C          -1.17679236235278    8.83405221051779   -9.77819044980162
C          -0.18083370336235    8.71602529905797  -10.65202602792862
H          -1.65941607215389    2.82115858350814   -4.18528266817266
H          -1.14541733465509   -2.09733612208209   -3.37621101936000
H           0.53531233884885    0.19395520635561   -7.87961652260793
H          -0.42745788610498    2.28227603023244   -6.63794837496111
H          -4.23528553655592    0.00735527531668    0.84071459377967
H          -6.63771861316701    6.45564441904413   -0.98488756583197
H         -10.38192531203581    6.49727958903333    2.27180692083149
H          -8.89746963989977    4.54588307082119    2.11280497037891
H          -7.00412669925500   10.50817218673378   -1.40712066473384
H          -6.13553420162433    8.98409438639068   -1.21719858453704
H          -7.49572995253796   10.53311181626433    1.04180281475929
H          -5.75955838584025   10.46016209798809    0.73322011190440
H          -6.62947179891981    9.00761764667952    1.23075803994057
H          -7.59003215809474    7.93829204019620   -2.88884734304882
H          -8.48485193518034    9.44750047846228   -3.08419819174521
H          -9.69735746130564    6.74776237352543   -2.32062146564215
H          -9.79993884373173    7.52195928748787   -3.90089462066766
H         -10.60567471788366    8.25089061447787   -2.50778152471249
H          -9.44727239797888   11.35188275200274   -1.61439153112073
H         -12.49723028786517   10.99173038780475    1.38464056185547
H         -11.64982417737246    8.77159208440819    2.01620477772577
H         -12.41473871879597   12.94669980233537    0.14576730470290
H         -10.36813423745017   13.14367785552153   -2.12759787008145
H         -12.54226316910888   15.05636268922343   -1.10369503168445
H         -12.60077825610890   17.27123069505949   -2.51138405937669
H         -11.42903774796085   18.37636184447565   -4.52296470745540
H          -9.98825605114717   18.90402313598022   -6.39033031459188
H          -8.23960078699434   18.85091191614153   -8.27722892601323
H          -6.45581003398235   17.39773889419413   -9.27071188492428
H          -4.55331679182309   16.06162277038745  -10.39047023744664
H          -2.70589457276043   13.90991041316697  -11.03475403162157
H          -1.23490388759440   11.43465911487713  -11.12928546426030
H          -3.32668603293380    9.37141590488633   -7.96563235738480
H          -5.15959108428650   11.52917039570023   -7.31198053104573
H          -6.61196125529071   13.99093004404908   -7.19262440956259
H          -1.41804100459988    8.00439396863753   -9.12579080911588
H           0.09779050118842    9.51412381964043  -11.31895839980746
H           0.39480513596136    7.81013533752426  -10.72948680491773
