123
 SCF done       -212.683124413284          0.000484416566
C          -5.52898286971971   -1.20305131688356   -2.06357586266172
C          -4.68989796118800   -1.49846489012684   -1.02160394798086
C          -4.16646977602669   -2.78296561972903   -0.76643125231447
N          -3.72126485505528   -3.80596653860209   -0.49570453712433
C          -4.22172395989206   -0.56893043360822   -0.06967579442149
N          -3.79582976239600    0.12564980235757    0.73975215424383
C          -5.95891887822184   -2.12912206250697   -3.10198226536084
C          -6.72676496417500   -1.41820748520188   -4.05775501995397
C          -7.26647047164216   -2.01917351538999   -5.16912011981752
C          -7.03571034055971   -3.38599276305902   -5.34956040661102
C          -6.27094788693360   -4.08880587392341   -4.38814393752602
C          -5.72685970687148   -3.48206145298601   -3.26243902456632
S          -6.11853270834308   -5.76523379863036   -4.81113832907995
C          -7.05704706375200   -5.51522835970617   -6.24253934700401
C          -7.47003346339553   -4.23916547535895   -6.40305152064142
C          -6.82737200919561   -0.00631562430561   -3.65677424403913
O          -7.46799456340145    0.86091952084319   -4.21660781751189
C          -6.07816919784493    0.10133116668169   -2.38123258854466
C          -6.05512180632540    1.20612848461384   -1.58443955153738
C          -6.47007111184309    2.51102909284685   -1.95055449971950
S          -7.24926417106166    3.48074798141678   -0.71697960995595
C          -7.53993126024282    4.78384124745651   -1.83321890565316
C          -6.98380639640998    4.49194598122483   -3.06603174256471
C          -6.37588570487933    3.22515137841101   -3.13077112107557
C          -5.60282569217378    2.92502667103819   -4.37966067967956
C          -4.70644948439601    1.80293867375503   -4.28736104794326
N          -3.95257560494479    0.94300007512720   -4.25547579299871
C          -4.77715448915378    4.18874086136740   -4.70542573124527
C          -5.67821117443890    5.38696431837472   -5.01339294379461
C          -7.05143337535546    5.31485198727519   -4.32100578668507
O          -7.93082068469100    4.71924287182090   -5.26641240087917
C          -9.27033586947795    4.63987187202087   -4.85432702058952
C          -8.28851276361413    5.93425729180576   -1.45332682429292
C          -8.76207904873140    6.14543857384466   -0.20847267517010
C          -9.57775005470900    7.24750163937017    0.23317123442736
C          -9.86277601264012    7.35427882420004    1.60514625007897
C         -10.66118026771920    8.37179426554323    2.06765188186159
C         -11.24187744970612    9.27374534644648    1.15739392182079
C         -10.96271132517263    9.18726269217026   -0.20066796248779
C         -10.12736205211630    8.18790586565620   -0.64992738769693
C         -12.11345196421968   10.16592988151843    1.88238105544928
C         -12.06563108837923    9.83136200089553    3.24852467015033
C         -11.12138334955511    8.66787641392537    3.48168744486602
C         -11.83889699165770    7.41275814628472    4.02105398149858
C         -12.43577748974648    7.52418451299524    5.41796856049012
C          -9.97167167089279    9.16801587047488    4.38200309945725
C          -8.86767812166942    8.16147370553165    4.67792879090835
C         -12.78010564170440   10.57147920810665    4.15749862785023
C         -13.62078881855017   11.61108875079713    3.71834883179032
C         -13.66991242504009   11.91237285501061    2.34812283470988
C         -12.91334917397148   11.21087454800074    1.43562229090898
C         -14.39596751779779   12.30959935520718    4.70798747582738
C         -15.40191917887021   13.18068365034074    4.45697108913324
C         -16.21705410094801   13.85431506616625    5.41324904333643
C         -16.07282458140259   13.82975697235686    6.82180972382311
C         -16.99367236025290   14.51704254439240    7.69711245916869
N         -16.81964793282030   14.46893219208076    9.02013481022940
C         -15.80905178195701   13.79365897646444    9.52464121777433
C         -14.89592706347492   13.11481208373669    8.66232454903645
N         -15.04602656400413   13.15157196331831    7.36070634889297
C         -13.80527352267846   12.38392806513815    9.19599025563245
N         -12.93255587676908   11.78960205597571    9.64114612092322
C         -15.63658063028852   13.75341752676544   10.92779720951722
N         -15.46870766242919   13.69792244244972   12.06061273217321
C         -18.11676003540101   15.26098888794078    7.21088907244052
C         -18.23188231985508   15.30916636321202    5.80000985267363
C         -17.30220147718470   14.62788170129970    4.93406060183929
N         -17.60314036421237   14.81069134091044    3.64754576867603
S         -18.90887523427735   15.73911335753954    3.53145695540232
N         -19.16282953682369   15.95510146084767    5.10828824837706
C         -18.98142029373817   15.85000906121916    8.14246026256152
C         -20.14601879331839   16.57375903609268    7.99892641616752
C         -20.87413642000092   17.05048435515421    9.12135731658567
C         -22.01613834453228   17.72350278072685    8.81704326594898
C         -22.25076515149630   17.81655009481883    7.42700415322696
S         -20.96762307928327   17.02876606716747    6.52629234670546
C         -23.31404059319873   18.42336746256976    6.79053009034335
C         -24.41505471981671   19.09188897207073    7.39315249350300
C         -25.31344404284403   19.59048226002929    6.51376390041839
C         -24.98616238945510   19.35195965489043    5.13791286825830
S         -23.46242856896507   18.45166369590454    5.05014412401498
C         -25.68011749075632   19.72386736701834    4.05266405441396
H          -7.84541505078360   -1.44982090125938   -5.87979758809778
H          -5.15425033446633   -4.06135670961063   -2.55750620018072
H          -7.24436784896451   -6.35342937276524   -6.88523241903755
H          -8.06235321820229   -3.89771412063524   -7.23271331784888
H          -5.76194312436732    1.09381320892809   -0.54767849333806
H          -6.31866988209286    2.72675702460117   -5.18955246858925
H          -4.12266909123290    3.98917031677160   -5.55489809733396
H          -4.14400546800570    4.40716495342691   -3.84128099352438
H          -5.88539143608769    5.43288212299706   -6.08330307887692
H          -5.16986357511209    6.30605160862158   -4.72217695604058
H          -7.40988817233458    6.33226462114124   -4.09659920025081
H          -9.82275475707270    4.23515471043129   -5.69956696713902
H          -9.66665440787428    5.63134142732101   -4.60012839759703
H          -9.39427096399987    3.97610402320440   -3.99180066772640
H          -8.47392206405558    6.65089185720930   -2.24025030278196
H          -8.51895670407676    5.41208659082420    0.55211583265848
H          -9.45093576228295    6.61614553187990    2.27693411173380
H         -11.40376139639041    9.88565430983035   -0.89616924067569
H          -9.91878461585683    8.11406997420934   -1.70603310351243
H         -11.12614339437394    6.58664354843722    4.00632010355359
H         -12.63688209127096    7.16326363344700    3.31580066091585
H         -11.68874551145742    7.82181613429742    6.14854697108305
H         -12.83032128945691    6.55484392066175    5.71637473046226
H         -13.25456383406059    8.23732588411353    5.43839742927935
H         -10.40467162274968    9.50942383017108    5.32339158471295
H          -9.53020769864879   10.04150083767635    3.89392139353455
H          -9.26347326688330    7.26114485012013    5.14002488433818
H          -8.15347203221062    8.60656313976308    5.36755427535625
H          -8.33296840673350    7.88989827505486    3.77201713140515
H         -12.71880615841219   10.37163333462177    5.21651167285161
H         -14.29501950447243   12.72141827910651    2.00396272332050
H         -12.94213699730856   11.46831320089831    0.38718629094863
H         -14.15943330766220   12.07731232617912    5.73593629842313
H         -15.68812008660471   13.39766297805116    3.43643387592044
H         -18.67548784791831   15.68715366028282    9.16988510363609
H         -20.52452589720399   16.87233530743914   10.12322526078623
H         -22.68257991314566   18.14553692488571    9.54765423894534
H         -24.50054854875584   19.17804773211839    8.46167755095249
H         -26.20735278905055   20.12500099582919    6.78151217181352
H         -26.60229340154559   20.26897569045529    4.15078112732902
H         -25.34338793325773   19.49138035911085    3.05911931127803
