103
 SCF done       -217.939775333829          0.000997536967
C           0.12348129067709    2.07722829752040   -0.41592967960129
C           1.18853695864214    2.69435085479301   -1.01432171379018
C           2.51388210437409    2.21210498707327   -0.96114593561887
N           3.60757493961487    1.86477178454304   -0.95349852754292
C           1.11644313585039    3.90971482193851   -1.72931557026562
N           1.14108912069350    4.90631993181275   -2.29812845395903
C           0.17698938040994    0.88412638233500    0.41513653011818
C          -1.11195186396806    0.64501149821594    0.95767318765541
C          -1.37663775939714   -0.41511613451319    1.79230627911026
C          -0.32327914771840   -1.27660588946838    2.11052817919746
C           0.95922286953740   -1.03271582607391    1.55980324483276
C           1.22768303358601    0.03647179133437    0.71392263710724
S           2.10326882724461   -2.22902381254134    2.07777477460180
C           0.88426557420048   -3.02703424893395    3.00911304515380
C          -0.32703519763343   -2.43229663832444    2.94096423827113
C          -2.05578501093609    1.65919987821106    0.46353360900793
O          -3.25303075220069    1.68513453633795    0.65156929340836
C          -1.25163627864951    2.55305411479061   -0.42130286087142
C          -1.77782349174776    3.50485654365080   -1.23008711639994
C          -3.10703351113005    4.02814179813520   -1.10692613576756
C          -3.88755543144003    4.27957760980990   -2.25327109352085
C          -5.26210066737910    4.70404931113587   -2.16687194346956
N          -6.01521933411090    4.72148237887291   -3.27547315200221
C          -5.46349318986774    4.46200491392905   -4.43299986721742
C          -4.06143314260741    4.16729456898075   -4.53134087414540
N          -3.33040354715127    4.04894612459618   -3.45571846273334
C          -3.46935474983467    3.97853379473054   -5.80664323463126
N          -3.03567351370943    3.82469455217528   -6.85519941496318
C          -6.27722651157798    4.49294282975179   -5.59338874673924
N          -6.92270085158115    4.54109120755976   -6.53840639212919
C          -5.86582432589331    5.01689627567397   -0.92654885421978
C          -5.06129167426730    4.81506010944065    0.21158499749427
C          -3.70079660535702    4.34080815532647    0.12654479349512
N          -3.12127363653793    4.29107184125750    1.32882656714485
S          -4.18050041448003    4.73771374818393    2.43619603285213
N          -5.42045535923243    5.05446057121732    1.47621142781820
C          -7.22451908343762    5.44157384512926   -0.78263453426211
S          -8.08217309924545    4.96151512235182    0.64281429665486
C          -9.55980936648866    5.68331788194256    0.07932008079961
C          -9.35670954309431    6.31987604711372   -1.14768546221395
C          -8.04002931250017    6.20155529860040   -1.61596368953122
C          -7.58160882293859    6.99060108453755   -2.80726019934071
F          -6.26184765162263    7.37596122187707   -2.64495158520916
C          -8.45325203661647    8.23154347193321   -2.96834504804599
C          -9.89533537773764    7.78484833365403   -3.14611944669579
C         -10.41941167757716    7.07462070924712   -1.89654448397490
F         -11.40477847310332    6.18427843997260   -2.30368365178226
C         -10.67947055330935    5.56961209255054    0.94042937361614
C         -11.97792779790703    5.85990847348450    0.65981252969144
C         -13.05288286839717    5.70389936650609    1.57540799798893
C         -14.37597813196929    5.96335310477702    1.12353356488752
C         -15.52571231491337    5.80903600216729    1.97389631092158
N         -16.75538617600842    5.91940287457024    1.44619192518241
C         -16.89552493085628    6.30719587812126    0.20447253005512
C         -15.74606796046099    6.61955659471220   -0.59398888445320
N         -14.54196056677318    6.39373040371199   -0.13403722468619
C         -15.90842378967521    7.13912237213332   -1.90270069217181
N         -16.08137772705523    7.55940159718478   -2.95382433548273
C         -18.21099018248373    6.42058418556296   -0.31138782084260
N         -19.27790706201424    6.54544339744378   -0.70869925307421
C         -15.40278571999663    5.50012521196733    3.34730376231691
C         -14.09711132691736    5.22309279001039    3.79300739178234
C         -12.93994767317107    5.32097793982925    2.93108022638180
N         -11.81745572279354    5.03668067687367    3.59776753395098
S         -12.17714028943651    4.69350317316366    5.12120617128755
N         -13.76263315822491    4.87771902403621    5.03811729644454
C         -16.51771300453944    5.40478396048714    4.23211639626926
C         -17.72212092842815    6.01802817793673    4.12712205853185
C         -18.19301592065062    7.10641490563803    3.29104367040905
C         -17.46467817582841    8.19355537448858    2.88201637411330
C         -18.00622471001245    9.27443121681662    2.15727289278388
N         -18.38482833962917   10.17212177810440    1.55065014800475
C         -16.08771616288517    8.34238849022243    3.13082618455218
N         -14.95896707473324    8.48643336069484    3.28956868046012
C         -19.63470677773421    6.95765071750260    3.17309301734638
C         -20.07258631649085    5.99182358415322    4.11908177158536
C         -18.90825632344473    5.45209714297592    4.84192695329580
O         -18.88989187118060    4.67539233140078    5.76668728598912
C         -21.39571078200292    5.64360783012835    4.25066473240571
C         -22.32107012463428    6.26073335568176    3.40311402151306
C         -21.86868321550467    7.20859546084642    2.45075370943105
C         -20.53382114651777    7.57354900404433    2.32515353104219
S         -23.18029690731061    7.81959628476184    1.49847503273924
C         -24.30245372359530    6.83053545219355    2.36546040854420
C         -23.72896675250223    6.07127038414898    3.32550465908778
H          -2.36814423714939   -0.57224575173832    2.18800698929112
H           2.21795459003223    0.17564399492574    0.31331423114154
H           1.15399989028176   -3.90787415860245    3.55872580653474
H          -1.20232745731460   -2.78854339583115    3.45325785204858
H          -1.21075491449515    3.88112572958368   -2.07212370739744
H          -7.60934494818340    6.38264621580521   -3.72093787653633
H          -8.11755141410480    8.79604590834697   -3.83834315641591
H          -8.34816459360580    8.86504312725588   -2.08471670247456
H          -9.95765727599666    7.08237960134684   -3.98063750300503
H         -10.53683083572234    8.63532777300635   -3.37595773746094
H         -10.92067070848548    7.77700457300030   -1.21506611922261
H         -10.45324904411172    5.18054351390119    1.92510068972890
H         -12.28949059345944    6.18097614891380   -0.31975971422878
H         -16.40209961039006    4.71111109403120    5.05832057508632
H         -21.70655203376411    4.91208887388793    4.98044286117265
H         -20.23038132893370    8.28589656601339    1.57561988584906
H         -25.34044634295655    6.87609974404107    2.09836890807991
H         -24.26961375474594    5.39487235160789    3.96247770284630
