114
 SCF done       -200.985919887401          0.000952100254
C          -4.88673932354356   -2.17772365255845    0.06399025983159
C          -3.97130042901594   -2.57230069029479   -0.87608232756706
C          -3.35783092546899   -3.84179502141405   -0.89816180058505
N          -2.82767202950577   -4.85793691107362   -0.96517904785501
C          -3.48514690546193   -1.75016580096106   -1.91494476007148
N          -3.01847782976479   -1.13609644534403   -2.76523184252786
C          -5.31754752131513   -2.95069378227541    1.22038917134903
C          -6.14547695485679   -2.13350551368946    2.03073482314473
C          -6.70465079724367   -2.58188663583396    3.20315460787505
C          -6.43024095425120   -3.89428422966176    3.59899138808178
C          -5.60524543966672   -4.70361815229043    2.78147304949065
C          -5.04271590836894   -4.25299767811759    1.59314406625782
S          -5.41057974687717   -6.28907033753924    3.46031298118141
C          -6.41081124182826   -5.86281843917575    4.80566518189114
C          -6.87422175595991   -4.59495007104748    4.75588109805621
C          -6.30523649282574   -0.81000667107892    1.40240670396268
O          -7.02973860723098    0.08377171485296    1.78552495301350
C          -5.50990276092469   -0.87016015056081    0.14562392620165
C          -5.54695832985901    0.07448062339496   -0.83151859835552
C          -6.00431943820183    1.41409000986740   -0.63969212811007
C          -6.71182580891967    2.09192138344280   -1.65226807080484
C          -7.23575269929108    3.42214232220289   -1.45772561775063
N          -8.02428301933587    3.95957546015984   -2.40183229063132
C          -8.24833215426177    3.30174919448628   -3.51213990053617
C          -7.65141584464783    2.01732349739469   -3.73872461931203
N          -6.93289984265945    1.44144433022996   -2.80950207272040
C          -7.85663538819128    1.35585800580980   -4.97572419421380
N          -8.05371338816623    0.85924785005262   -5.98897345741135
C          -9.08791133948042    3.89186193370972   -4.48876094070132
N          -9.74811756625711    4.37223442756559   -5.29267106699078
C          -7.00589788798911    4.15286399460467   -0.26645544482338
C          -6.23204317226012    3.49700071612198    0.71015764213542
C          -5.72997792573453    2.15425746942147    0.52519146603405
N          -4.95208204996873    1.76970538060029    1.53735587181815
S          -4.89415694074911    2.94526614328719    2.62258696432436
N          -5.81544459638721    4.01603331530347    1.87116873851590
C          -7.54610600506697    5.47954475444426   -0.05754725295459
C          -7.69578499412657    6.37596359235047   -1.12900997644577
C          -8.25569497058001    7.60626234110692   -0.90483032577213
C          -8.67127394003981    7.98612007389421    0.38556425471998
C          -8.50758291425990    7.11397957344377    1.45585476962462
C          -7.94594832175262    5.87679896206402    1.22879243468966
C          -9.22268122740682    9.31661476592562    0.31647759660236
C          -9.16193363921384    9.75954492396414   -1.01927899439705
C          -8.52724932342481    8.70885949222579   -1.89965231781455
C          -7.22234240034882    9.22889964630617   -2.53220226429858
C          -6.21278691357651    9.71230257865365   -1.49770251307254
C          -9.48475254980761    8.23509460012440   -3.00924528515938
C         -10.79333698052174    7.67621365364896   -2.46509264323450
C          -9.63120644134523   11.00117217935054   -1.36213808884313
C         -10.15473154477734   11.85157425763475   -0.37090571228263
C         -10.20843528086403   11.39216279423489    0.95587925709485
C          -9.75467457460402   10.13877836206633    1.30335902389889
C         -10.59752318263763   13.16023893776164   -0.76378180304507
C         -10.92853762666069   14.18113651948356    0.06290447093384
C         -11.31247422483288   15.45027545555082   -0.42602295722481
S         -11.62761881235692   16.79535807926744    0.64951736652352
C         -11.96169862028266   17.94288850141002   -0.63464259182437
C         -11.83857310009388   17.26291568249274   -1.83131110795229
C         -11.48001575823158   15.89702197305564   -1.72936915887742
N         -11.39434625993512   15.38753352646808   -3.00525059807258
C         -11.68208943625851   16.38120467715147   -3.76755695746910
O         -11.96341394854657   17.55495217725077   -3.15259356126147
C         -12.25274423448513   19.30031786030068   -0.36176767708101
C         -12.47666351142728   20.21969780641475   -1.33254299548997
C         -12.72251065095541   21.60500115189525   -1.11453037980373
C         -12.91506625585224   22.55075318696035   -2.11500414836546
C         -13.09505238217057   23.82774837249500   -1.51274082753371
C         -13.29924340591515   25.07530582643487   -2.05147342404932
C         -13.42271322044437   26.15797612686784   -1.16249915858982
C         -13.61876140529598   27.51349324654480   -1.38504653155229
C         -13.66664149572467   28.19175003558858   -0.12626887208378
C         -13.50201638442607   27.24934742872190    0.87216627215437
C         -13.34337213482982   25.96069817055070    0.27156406888671
C         -13.14296763652266   24.71813850970187    0.81157857267904
C         -13.01208435443284   23.63140287582296   -0.07850234246903
C         -12.78846271804554   22.28471313802398    0.14756892028909
C         -13.84948422757195   29.60721868407468    0.08797456484114
C         -13.98754090822905   30.52353451990998   -0.86648188854788
H          -7.33351577409739   -1.93719126843320    3.79752898767978
H          -4.42805983757074   -4.90936333664502    0.99981305114964
H          -6.59366180181243   -6.60104021112430    5.56220781436162
H          -7.51037656422949   -4.15650079665745    5.50341184038870
H          -5.26248030279108   -0.17969194816117   -1.84472785099408
H          -7.35350591819834    6.10014803537188   -2.11279598742774
H          -8.82577108356755    7.39441627670476    2.44866776122923
H          -7.83469465204956    5.18127531695582    2.04488655854149
H          -7.46674724738157   10.04862741290841   -3.21066853892358
H          -6.77915990019563    8.42611252860841   -3.12476301962568
H          -6.62440871445554   10.53065954732991   -0.91087944407685
H          -5.31054692157616   10.06434253451101   -1.99250525299637
H          -5.94083644934425    8.90675388927839   -0.81900465967984
H          -8.98539057255381    7.46384638980205   -3.59868791023353
H          -9.69653807801025    9.07769003913849   -3.67045321286431
H         -10.60666666178436    6.81284354453540   -1.83047777618953
H         -11.43158140453965    7.36304411524016   -3.28748275082615
H         -11.32206729831818    8.42725633528824   -1.88158712746423
H          -9.59182221298290   11.34819132788995   -2.38448533830538
H         -10.62580523348251   12.02975572499465    1.71962939366072
H          -9.80994294940231    9.80110113600596    2.32759119167837
H         -10.63669243028590   13.35213207795949   -1.82812623319626
H         -10.88572404592482   14.08066623972671    1.13783668042671
H         -11.71682096589974   16.35436717833511   -4.83897111040229
H         -12.27058511916821   19.57880606712993    0.68140893042830
H         -12.45320557179852   19.89818057046842   -2.36560186942007
H         -12.92135445784112   22.35631478688651   -3.17183350329020
H         -13.35987617508396   25.23009588470488   -3.11964716113601
H         -13.71850520572060   27.98170616356965   -2.34719633051390
H         -13.49077620561361   27.44216519832906    1.92954083726523
H         -13.08035399631997   24.56266852850591    1.87961711413379
H         -12.67848334135934   21.82031879509663    1.11047017051420
H         -13.86714192751887   29.91092594771439    1.12752516355931
H         -13.97403099239685   30.27120229897052   -1.91296504156218
H         -14.11809905251101   31.56548705790840   -0.63132930548801
