100
 SCF done       -218.870320460776          0.000975141367
C          -1.43205022082923   -2.50726175679161   -0.39551034212035
C          -0.27544871706970   -2.51717007099590   -1.13079336865912
C           0.61307442848186   -3.61052863848014   -1.19168880339134
N           1.37430413528008   -4.46582882096557   -1.27446087867900
C           0.20530815945848   -1.42799828505195   -1.88857553592244
N           0.67990636010834   -0.57883431635599   -2.49816613845415
C          -1.89340299354212   -3.56749657252022    0.48981544198550
C          -3.04705260478462   -3.11540520380649    1.17880282427110
C          -3.71167611058949   -3.89333309565917    2.09611506277080
C          -3.21258013827387   -5.17398887106885    2.35165303744362
C          -2.06222096005921   -5.61784454946122    1.65607748549334
C          -1.39196476948740   -4.83396939440489    0.72449740749971
S          -1.63058547103236   -7.23288828940250    2.12213979083114
C          -2.96325372701797   -7.29764798590045    3.22307515925021
C          -3.70250546806291   -6.16727255675634    3.24588085427758
C          -3.39155834333068   -1.75449109667365    0.73126945252988
O          -4.38027332496331   -1.12529336993948    1.04024562636782
C          -2.35275830027434   -1.39278928528186   -0.27371195719943
C          -2.39624458482992   -0.28670867875799   -1.06507994907512
C          -3.17172422196859    0.87908064744729   -0.79227224121917
C          -3.73915002309977    1.63260525861138   -1.84471012989953
C          -4.54905468131227    2.80024711198667   -1.59984197340756
N          -5.14724623626438    3.42185573869215   -2.62975114920487
C          -4.95303840156781    2.97330391692320   -3.84909328936388
C          -4.09971455635688    1.85228878321762   -4.09416040795277
N          -3.53467576819968    1.20842514458403   -3.10071014284011
C          -3.86839499438938    1.42278782853264   -5.42487105609295
N          -3.71522116336903    1.10387913783381   -6.51418555381964
C          -5.59233137247465    3.62998550896793   -4.92917289788789
N          -6.08618855588536    4.15223926697295   -5.82144996498266
C          -4.77353931039690    3.28071584144861   -0.29341016729933
C          -4.17186593014218    2.55371499767843    0.75141886057138
C          -3.35888085613460    1.38708145048203    0.50701098138661
N          -2.80524606360675    0.92601380700278    1.62745489410833
S          -3.29721420920169    1.81854759594704    2.86056779852823
N          -4.21381610317264    2.86485613541837    2.05091161056377
C          -5.58972904612826    4.43487189575132    0.02292941463042
C          -6.35056953229026    4.29863732248827    1.28183050444058
C          -7.14699995674249    3.17301976496475    1.50738930563574
C          -7.85067933633535    2.99521717276981    2.69223655501379
C          -7.77858153377471    3.96195178593882    3.69184453393730
C          -6.99736536721442    5.09329995139069    3.48777000339997
C          -6.29178437350318    5.24675829608706    2.30101077158253
F          -5.53349518406328    6.34329327103694    2.16746020658246
F          -6.93393872589505    6.04822498492154    4.42390563993773
F          -8.45801705467617    3.80940333294728    4.82815459332511
F          -8.60539044046802    1.91148348496231    2.87295078016584
F          -7.25905383958349    2.24673843022092    0.55446088080152
C          -5.68566219373547    5.59148129881555   -0.69612292815779
C          -4.84526034453044    5.87784151398288   -1.86512998398346
C          -3.46352265924777    5.66537549102878   -1.87350525107306
C          -2.68108688832215    5.95305419885797   -2.98389980912286
C          -3.26595330530370    6.49429104573487   -4.12543064057343
C          -4.63560417078200    6.74417911728026   -4.13586231735121
C          -5.40324889315895    6.43671278186833   -3.01977449312778
F          -6.71693195796720    6.67311323268782   -3.07301325293063
F          -5.20282690793330    7.29452749161106   -5.20756952790225
F          -2.51866793069689    6.78446457104703   -5.18900513405934
F          -1.36598879044859    5.72474353501265   -2.95125958767940
F          -2.85366218603675    5.19333659097876   -0.77749416786812
C          -6.67447520449694    6.59279384043915   -0.31893290938594
C          -6.52425259302455    7.92274004425271   -0.32180447736678
C          -5.27068638934293    8.65907762343016   -0.66348562775698
C          -7.64274308644381    8.79024110140651    0.20706348707305
N          -7.37547654615436    9.09350093563120    1.59663686283121
C          -6.76498953433415   10.21195537817266    2.01854004658279
C          -6.19054727073242   10.34410942544492    3.25072355339853
C          -5.62897301733088   11.53928593474083    3.71486717208403
C          -5.02115882278651   11.69125229826937    4.93872712936604
C          -4.43560081700779   12.86753796498543    5.46155948973316
C          -3.89777906564893   12.72207567606316    6.70432142651470
C          -4.02644222009844   11.41671153808173    7.23392344492368
S          -4.86085714239397   10.38059499808230    6.10018193892488
C          -3.57916589721972   10.95060669053484    8.45420785415813
C          -2.88788621883506   11.68263790806087    9.45618666027143
C          -2.56522179449066   10.95784464301026   10.55251464269109
C          -2.98137364347765    9.58731389308776   10.49759470506075
S          -3.80941525717953    9.29219043664312    8.96062152511160
C          -2.80171956313279    8.63381091553542   11.42377468171159
H          -4.58929392754998   -3.52228380477862    2.60247562064664
H          -0.52497922855304   -5.21946679058838    0.21435555428797
H          -3.11331240550741   -8.19382736275889    3.79321070617457
H          -4.56847653163925   -6.02640719505410    3.86707426295607
H          -1.84681479025651   -0.26727779807983   -1.99785777023175
H          -7.61643253438976    6.18733869500027    0.03056246233983
H          -4.39593519946600    8.02035136254767   -0.59510747364401
H          -5.13739492177854    9.49603074693618    0.02124191999120
H          -5.33294205660859    9.06247203134272   -1.67495894075032
H          -8.60278549963850    8.27223726461968    0.13712976902587
H          -7.70452714566701    9.72709707919163   -0.34980612496047
H          -7.29257992711056    8.29011514383937    2.20549645808830
H          -6.79652213987079   11.05166599283839    1.33594432872092
H          -6.16027193109872    9.48503196815943    3.90774487826365
H          -5.66581720654472   12.40894318279501    3.07129124624665
H          -4.43049199854136   13.78643173447862    4.90190334950807
H          -3.41439674170842   13.51217355739903    7.24974531651643
H          -2.65262305486781   12.72425810542926    9.32864622887512
H          -2.04184872202326   11.33923754537799   11.41094459694365
H          -2.29170156957693    8.85282607777628   12.34509989210690
H          -3.15630266638507    7.63004332130894   11.27786567721565
