111
 SCF done       -191.063574899654          0.000552012341
C          -6.09226954897778    0.00501451197787    5.84093006301446
C          -6.70494186957556    0.24728154154973    7.04438475208709
C          -6.50797662174021   -0.53219408760953    8.20198724268167
N          -6.37803237639490   -1.12382763821798    9.17750659745350
C          -7.63320909064483    1.28285569170167    7.27699939782359
N          -8.40947165601099    2.08959991083686    7.53383100561437
C          -5.20366107581619   -1.10938078195847    5.54023347720345
C          -4.89127266571167   -1.07882888167383    4.15733847994458
C          -4.07207843794940   -2.00691969759938    3.56215536566534
C          -3.53438958542389   -3.01456182472116    4.36922377026875
C          -3.84795719251082   -3.03505957063990    5.74905349967890
C          -4.67780276063780   -2.09606579288219    6.35161862256652
S          -3.06736237734366   -4.36191236635779    6.55022102566662
C          -2.34607425268894   -4.86883954934453    5.06188917452281
C          -2.66885300699740   -4.08566116588645    4.00966771058255
C          -5.56846522459254    0.06429196300523    3.52693773719205
O          -5.49615165681923    0.39788244911696    2.35898293446469
C          -6.27888087506158    0.76266119378973    4.62037970864417
C          -6.79916186129066    2.02596629340899    4.53339092650389
C          -7.05710829558755    2.75314615901685    3.35263813781344
S          -6.86082422715933    4.48526985475107    3.36994786612170
C          -7.20438275551692    4.62573637245358    1.67160956580864
C          -7.51156441582119    3.37288040263237    1.14136674161674
C          -7.45844066302658    2.33686524229862    2.08506136490476
S          -8.12142468912864    0.73109820357341    1.85986881602721
C          -8.07829447881738    0.37408260529849    0.13927666079083
O          -8.51676025776123   -0.68111860352346   -0.23468985109249
C          -7.55028967354842    1.36373899554504   -0.86834634891313
O          -7.16434855254057    1.01250634631849   -1.94544928902290
S          -7.74431322573501    3.11249985303382   -0.58360181148714
C          -7.10260301291367    5.91497123604747    1.08799325113675
C          -7.47479417352693    6.26480941338496   -0.16489367085457
C          -7.31554046867440    7.55724721434566   -0.77116224975603
C          -7.81782607232603    7.74424855040726   -2.07306813256085
C          -7.65138697436095    8.94917190069952   -2.70400558910748
C          -6.97754923572890   10.00536367471532   -2.06134191322853
C          -6.48732470870043    9.83930882908902   -0.77111894757610
C          -6.65941136807354    8.62700243287430   -0.14029363589676
C          -6.91781997797811   11.12934072913708   -2.96107378826921
C          -7.56233411873889   10.77948295174040   -4.16291453622046
C          -8.08943274756603    9.36498744207859   -4.08909439411875
C          -7.45281256138261    8.47201869278002   -5.17019621476586
C          -5.93023954189365    8.46062111601607   -5.10683247663589
C          -9.62293189118001    9.32801872505744   -4.22627061507088
C         -10.33089136933272   10.18386946301403   -3.18285508961226
C          -7.63306709477945   11.67167361415000   -5.20081718326657
C          -7.03703707871100   12.94193858965349   -5.07925562104941
C          -6.40723563445872   13.27530455820687   -3.86660846777611
C          -6.34819898999314   12.38881746246884   -2.81513353582281
C          -7.08816838106440   13.83955369076884   -6.19568782543294
C          -6.39057481490987   15.00032862394867   -6.32244481756401
C          -6.45639707227327   15.84800866664440   -7.44075917622777
C          -5.70324936478254   16.98819247901109   -7.57363420082141
C          -5.70253580187898   17.90780246254728   -8.64905459246175
C          -4.83395656250211   18.94838421810060   -8.50162953646774
C          -4.09264982435987   18.91051210677943   -7.30252804982910
S          -4.54436941442836   17.50579437559377   -6.35719165418050
C          -3.12871990355985   19.79554732932593   -6.86065910579645
C          -2.65220622925946   20.96903743616843   -7.48028508508401
C          -1.68178302848857   21.61724425011005   -6.77536165170173
C          -1.32214767122785   20.99941852987041   -5.55419075044227
S          -2.29541793115556   19.54464301448458   -5.34196414711364
C          -0.36746139855154   21.45186523250107   -4.67627521962454
C           0.05574857979041   20.88850502175090   -3.46425733692648
N          -0.41730347620696   19.72197444415507   -2.89277317299243
C           0.20151538713493   19.43771280650887   -1.72284576818614
C           1.12740548728105   20.43844374471773   -1.48114000480449
C           1.03568880977138   21.34521677322752   -2.56941438251604
N           1.93180635245597   22.34462055399686   -2.36669762273766
C           2.58858037011839   22.09985138064152   -1.18753971304372
C           2.13794865081594   20.94113945468618   -0.59681076287388
C           2.55897264991636   20.32477130898437    0.63747729604285
C           3.49652457627004   20.79000575028554    1.45761603270793
H          -3.85601738961390   -1.95863909566098    2.50612613699812
H          -4.88390356566658   -2.15127147564034    7.40759503458894
H          -1.71432856403066   -5.73568394490233    5.06803002335371
H          -2.31477229309154   -4.24675017090986    3.00754023994082
H          -6.95033570986856    2.58176021853108    5.45101943883317
H          -6.69388862505364    6.66111063704926    1.75547137091397
H          -7.94113664166664    5.52105740283001   -0.79508228725811
H          -8.32554035085526    6.92603893590009   -2.56352029916681
H          -5.97271002716812   10.64683574404853   -0.27202454017849
H          -6.26891802992022    8.49724275764392    0.85688542659100
H          -7.77183495407332    8.82996266762340   -6.15135121785831
H          -7.82785795912619    7.45383313953947   -5.04831495680907
H          -5.53198812643360    9.46293520305322   -5.24893742798746
H          -5.52861288069448    7.81667933522342   -5.88571646070943
H          -5.58842837512374    8.08904226888112   -4.14330390845140
H          -9.95744666405966    8.29264286944079   -4.13374449185525
H          -9.89196210718180    9.67820956724055   -5.22509665407593
H         -10.09573256185295    9.83897066505658   -2.17830013446965
H         -11.40808867192157   10.12847115803239   -3.32216305996113
H         -10.02551236685082   11.22446001896850   -3.26832162126231
H          -8.12589907990875   11.40782206298552   -6.12610944142541
H          -5.96833580855474   14.25400385196510   -3.75106100369011
H          -5.86252611349047   12.66760471432907   -1.89158189950263
H          -7.72122653283778   13.53436937683468   -7.02038638340334
H          -5.71648053053557   15.31186257323919   -5.53532869479459
H          -7.13122061363951   15.59592549076400   -8.24811997311333
H          -6.34644762892718   17.77015411348851   -9.50001123713999
H          -4.70531341574453   19.73602551494935   -9.22269321740971
H          -3.03759197999817   21.30349827147363   -8.42663062470390
H          -1.20627424406662   22.52681257376685   -7.09868229277203
H           0.13462952615559   22.36845142733345   -4.95790047167996
H          -1.13840339502991   19.15532113420115   -3.30856192346717
H          -0.05312771761450   18.56402652422846   -1.15713161058495
H           2.09953706939505   23.13384310572095   -2.96702981794790
H           3.34421088923131   22.77951181333133   -0.84554935347852
H           2.04121041379045   19.40577066910900    0.88064919215522
H           4.03326591289579   21.70076261047835    1.25519507886090
H           3.75638951954342   20.27395838854913    2.36520377843446
