117
 SCF done       -202.332765515254          0.000699027838
C          -6.90857264800009    0.31423107548199    4.29294789413454
C          -6.53198885724709   -0.99561863238886    4.14087286076094
C          -6.54465085277657   -1.94702209767380    5.18275163897082
N          -6.52541837939405   -2.76804886979575    5.98505116593789
C          -6.08722158231014   -1.59762261750037    2.94501044436739
N          -5.71736292157651   -2.16869076480904    2.01952718148767
C          -7.37625511510709    0.91539642794230    5.53824382085441
C          -7.68944620784972    2.27714399350225    5.29674973817328
C          -8.15780755244778    3.11804361906812    6.27737215160780
C          -8.32489921777124    2.59212494855251    7.56174764488562
C          -8.00909873715124    1.23229992607752    7.79568992614720
C          -7.53631460251295    0.38161111683522    6.80249762677908
S          -8.28913332041726    0.79861933018129    9.45200526893207
C          -8.81562906247225    2.40670588116548    9.80993721506876
C          -8.78617658616762    3.23632012081410    8.74411648152306
C          -7.42650986563424    2.58782675397517    3.88544646551452
O          -7.59367300881355    3.66653300392941    3.33973569640100
C          -6.92742016007188    1.34984519455201    3.27596381288994
C          -6.53254817225069    1.20428726099337    1.97049108677708
C          -6.49925536087893    2.13935294197663    0.92808551310135
S          -6.98580044167494    3.81249674980310    1.00417693577400
C          -6.56969494775466    4.06725101213778   -0.65622632772201
C          -6.07443177994484    2.89939527015224   -1.24388108469335
C          -6.03757865818539    1.82322617223156   -0.36508586775104
S          -5.48599181292830    0.19684921996332   -0.73153953156090
C          -4.99882316151865    0.12044546406505   -2.43293645670014
O          -4.60677375116346   -0.94121307433744   -2.82765476633990
C          -5.04356082217283    1.29405291808685   -3.38834336435869
O          -4.69046203765869    1.13921282629493   -4.52530991521427
S          -5.58475942888514    2.90845746626567   -2.93388362036666
C          -6.71653988725427    5.32080653910591   -1.30134839140577
C          -7.25725737433969    6.40341105537787   -0.69605436081481
C          -7.43476255377088    7.71053401126108   -1.26284549305907
C          -6.89340153492546    8.07736325846071   -2.50806122198143
C          -7.09683325132992    9.34572358816205   -2.99115876146974
C          -7.81475726300456   10.28995262341388   -2.23041424569077
C          -8.35849011221327    9.94082704185290   -1.00064688747997
C          -8.16688288899170    8.66013613642097   -0.53111737242997
C          -7.79022032895148   11.55636685673101   -2.92167546788417
C          -7.05024350586454   11.40545979544304   -4.10774939139342
C          -6.61304578150866    9.96607434515707   -4.28260522916282
C          -5.09257733274450    9.83902975544554   -4.45651132663065
C          -4.32138515227401   10.48289632780001   -3.30987723179343
C          -7.37591958295883    9.40867824417650   -5.50830428383354
C          -7.24324037755108    7.91059237461162   -5.74828693212586
C          -6.83927249018535   12.47876666085978   -4.93639156255439
C          -7.36612892527465   13.73835468213217   -4.59913103072797
C          -8.11092298685013   13.86593359544193   -3.41554555473549
C          -8.32449880767648   12.79219662942975   -2.57896415104488
C          -7.10571368996653   14.83993838839779   -5.48753091651181
C          -7.57536606390992   16.10308066917176   -5.36052781428858
C          -7.25749689801646   17.13626879704681   -6.28021558330722
C          -6.45363750679591   17.11775564759149   -7.41429028130017
C          -6.44235164869929   18.41929670945826   -7.99186335951357
C          -7.27986134585325   19.26526810865416   -7.17695451274458
O          -7.59665787822563   20.44058387803079   -7.24640781429654
N          -7.74080018858528   18.41937682611185   -6.15513476938887
C          -8.61881084511534   18.90184914167453   -5.12559459340656
C          -5.62398982115283   18.39609259925749   -9.12218536329217
N          -5.14558875112966   17.10959894581341   -9.24413503713706
C          -5.62136012814571   16.26762346534351   -8.22189804290010
O          -5.32601013844128   15.08800533173077   -8.14288226445987
C          -4.27591838178095   16.57906179792193  -10.25625726729850
C          -5.33013283823260   19.48907489351237   -9.98549220167570
C          -5.91955474624042   20.78519610796342   -9.77322869607665
C          -5.45989230518530   21.65036527564714  -10.74737289626245
C          -5.72944269211965   23.01461601592035  -10.98253413009374
C          -5.10475013276103   23.60885339210039  -12.04718184309266
C          -5.15030872981331   24.94212764262792  -12.55669529864961
C          -4.32207623888685   25.02889427537019  -13.66361861481824
C          -3.73483689134134   23.74595945526016  -13.87660742357878
C          -4.19836120563350   22.86719176521592  -12.90375942058280
C          -3.93039136702671   21.50958684790702  -12.67215432185755
C          -4.55775179671466   20.90896693238237  -11.60323859406485
C          -4.50322288006176   19.57901938911209  -11.10321175238979
C          -4.10880077427923   26.22324988185269  -14.44613749869935
C          -3.31511409533271   26.32235094827307  -15.50871352745163
H          -8.38662998589264    4.14949959708468    6.05860485829044
H          -7.31039941549204   -0.64542959315172    7.03471580793121
H          -9.11940899039124    2.63491795527999   10.81308252694599
H          -9.07726665745063    4.27059386679141    8.77761205170841
H          -6.17854000147173    0.22378247604010    1.67461182848501
H          -6.37557589423494    5.36238169504827   -2.32656536427057
H          -7.60928762252360    6.28072102611636    0.32164570551524
H          -6.29644492227784    7.36882402919459   -3.05909201599144
H          -8.91016283727507   10.66343467650136   -0.41834421172417
H          -8.57977000518745    8.37159741401331    0.42468693313693
H          -4.80660626039028   10.31301623405523   -5.39730983290529
H          -4.82476983668713    8.78350054274764   -4.51666976351163
H          -4.54574821950351   11.54515905084595   -3.24381751010757
H          -3.25159295205316   10.36698232978496   -3.46699995668939
H          -4.58233701614222   10.01754076967893   -2.36150258427042
H          -7.01937953425117    9.94556367077150   -6.38981011193387
H          -8.43494366869874    9.64965315445146   -5.38213866855259
H          -6.20356919734160    7.61597842019023   -5.86256313060540
H          -7.76847385660192    7.64673135974863   -6.66363821605695
H          -7.68550743922074    7.34503917834244   -4.93241173253878
H          -6.26696841829376   12.38007570977672   -5.84703254459369
H          -8.52031871251158   14.82662722727334   -3.14456864225770
H          -8.89499452156161   12.91106877186731   -1.66976817194001
H          -6.47077980427262   14.61734506260262   -6.33505628289468
H          -8.22189552958206   16.37424129666291   -4.53868870127240
H          -8.80081865668716   19.95577133613313   -5.33840918883782
H          -8.15778136542164   18.81059610200711   -4.13956168791763
H          -9.56992870885795   18.36495350935256   -5.13557101434770
H          -4.71534035313943   16.68807363919131  -11.24931891474569
H          -4.15744299397030   15.51725691174253  -10.03271539137727
H          -3.29565104099551   17.05867216195546  -10.22593902085985
H          -6.60183405085779   21.01982944758424   -8.97687354428704
H          -6.40561231732340   23.55538399340352  -10.33621241334470
H          -5.73585555812346   25.74158504923855  -12.14045601648119
H          -3.04505061695768   23.50029664481358  -14.66319656474993
H          -3.25367974896952   20.96355701291632  -13.31493453634580
H          -3.90465698635052   18.80650267843416  -11.54371351528231
H          -4.65958198532604   27.09211102270268  -14.10738466901233
H          -2.74788318050417   25.48753800476014  -15.88313558651740
H          -3.20534196742308   27.24921727619935  -16.04438710634614
