116
 SCF done       -224.205345063603          0.000659017372
C          -5.80848884162730   -0.92374143768570    4.27342605170950
C          -4.55607122420390   -1.42052593344991    4.03047381013389
C          -4.02435084416176   -2.56537557651177    4.66069324801532
N          -3.54453189832560   -3.49056677886191    5.14121743553218
C          -3.61667531399169   -0.82571258234793    3.16061647110004
N          -2.79283712154638   -0.38064985294896    2.49674459355101
C          -6.76154428227381   -1.42785409948266    5.24991575996083
C          -7.85930639399187   -0.53219922519852    5.31963397479607
C          -8.92774941703957   -0.73872220553836    6.15965288213276
C          -8.91123008851027   -1.87629279380477    6.97161746203110
C          -7.81147608958680   -2.76588066263531    6.89325671995123
C          -6.73252956852780   -2.56057805599721    6.04192054136283
S          -8.00897102741405   -4.10570176476768    7.97726324321625
C          -9.52672139575726   -3.47686226878354    8.51746503484377
C          -9.87788977053009   -2.31801263894996    7.91820053606665
C          -7.66518539122050    0.57140890186363    4.36477805121672
O          -8.44985845520453    1.46253868657174    4.12406459642545
C          -6.37312521895307    0.27626350431776    3.67818516419570
C          -5.93631517321951    0.90158149518786    2.55626212988882
C          -6.42131675693052    2.16552766269809    2.08918321618224
C          -6.59435545636448    2.40972781885484    0.71105254551550
C          -7.15738082395780    3.64204236112692    0.22626469777564
N          -7.21652581804409    3.87936553991461   -1.09331944877508
C          -6.85050315830148    2.93810045921955   -1.92530474830321
C          -6.41401715763540    1.65802438180511   -1.44017775930065
N          -6.27405201234540    1.43574945439978   -0.15969199460822
C          -6.10442375673369    0.62526951057693   -2.36223305819312
N          -5.86888620949588   -0.18526147198527   -3.13587040563270
C          -6.86650499055884    3.20197200039437   -3.31812168383288
N          -6.86195870865253    3.38034055757511   -4.44915439667746
C          -7.60464257631538    4.64699471694696    1.11130268708498
C          -7.30283659306287    4.46475489947789    2.47224411835278
C          -6.71114251959383    3.23590371266508    2.95353062644993
N          -6.48342022705071    3.28330926051902    4.26752235789113
S          -7.01013456605542    4.68145264482633    4.83507410624914
N          -7.52402078328359    5.32893181310102    3.46556195867799
C          -8.28780911499004    5.81951277772760    0.65216269643569
O          -8.06917321581517    6.97039159926103    1.29571740595604
C          -8.76308587570010    7.95366228438719    0.69468371088545
C          -9.48160376211234    7.41942030675861   -0.38197949726149
C          -9.18589617433654    6.03089963423251   -0.39443678929445
C          -9.89943271477089    4.97396971478982   -1.16415977655896
F          -9.81171179594139    3.76192980821313   -0.59622561298983
F         -11.22319804419719    5.22709809033713   -1.22988858531478
F          -9.49488096051815    4.82975756197168   -2.43759522620781
O         -10.23965343771281    8.17495347918675   -1.19073810482323
C         -10.47175092971739    7.75507428400749   -2.52789009702156
C          -8.67898812555566    9.29211815330867    1.21764177318770
C          -9.54535012937376   10.29875869594612    0.76544069223523
C          -9.44392087020302   11.55430318359663    1.31126086280180
C          -8.47673132606192   11.83871854523491    2.29283133371386
C          -7.61571693868092   10.84490718152710    2.74145993887948
C          -7.72715396292564    9.57862623297009    2.20852983148958
C          -8.60821975589690   13.22534385684640    2.68009161884070
C          -9.67062435592843   13.79384484626599    1.95401962940152
C         -10.28261997044075   12.77627719720493    1.02028545348447
C         -10.15344649977699   13.21044399139003   -0.45165515052757
C          -8.71109927468951   13.47516257404150   -0.86611984161830
C         -11.76510380641492   12.52478108322274    1.35609872957197
C         -11.98124006185608   12.09160348581437    2.80109403360526
C         -10.03204335639733   15.10155019660545    2.16129110757062
C          -9.31983184104497   15.88156404736711    3.08702622165531
C          -8.25348348447977   15.30448759794873    3.79142603733776
C          -7.89889583112140   13.98595655961506    3.60073310496918
C          -9.74383404729091   17.23770097877759    3.32721046517728
C          -9.01396917439589   18.21187130285679    3.91135938420706
C          -9.47682125982888   19.54087883199704    4.13517456141534
C         -10.73852342943490   19.98471271429841    4.37311010032030
C         -11.97749309509642   19.31047330275983    4.71224100586696
C         -12.11161404511998   18.13222148837499    5.39909301535172
C         -13.35174907430024   17.58109151208791    5.78090563365351
N         -14.33336294941912   17.07655130153569    6.09701397809287
C         -11.03331983294240   17.36275282327850    5.88034079522942
N         -10.20631194553448   16.71177686792866    6.33867177154343
C         -13.06573046056052   20.23959341431476    4.42793157407543
C         -12.51551471063732   21.51922900340020    4.15722789749104
C         -11.04468217357636   21.43283601765189    4.19438780569644
O         -10.24176168146729   22.32824512183913    4.06243394574316
C         -13.29954877025935   22.61797593093888    3.89899579524672
C         -14.68692767896752   22.44522105815631    3.89645223393914
C         -15.22486100177032   21.16016843162511    4.14955755067911
C         -14.43405647140167   20.04954568237140    4.41849367540569
S         -16.95885822175430   21.18031047851658    4.08313134365219
C         -16.94986450606364   22.87404731879397    3.73240262137034
C         -15.71055646579179   23.40655441868931    3.66272199960948
H          -9.75032718254811   -0.04103135901679    6.18891009445158
H          -5.92297232419971   -3.27071941128779    6.00949991407210
H         -10.07221300359454   -4.02383747125752    9.26173764045051
H         -10.78711939611154   -1.78372946903255    8.12645375271621
H          -5.20677413033417    0.42097937744430    1.91657408880732
H         -10.67614066616197    8.66792424444910   -3.08627869983062
H         -11.33922583839884    7.09648007125179   -2.59441186634214
H          -9.59554381387259    7.26052061868828   -2.95057309131858
H         -10.28370239449272   10.06842448592905    0.01603987588244
H          -6.87718400825451   11.05689555076231    3.49942750516087
H          -7.08074403551747    8.78462447156629    2.54831913072918
H         -10.74617684896987   14.11501191941842   -0.60273645269566
H         -10.57369399125571   12.42517277586178   -1.08294626276098
H          -8.27535616966072   14.26708554491591   -0.26080121386792
H          -8.67210239053266   13.77930321374732   -1.90944899338542
H          -8.10647432271153   12.57911010761881   -0.74595541404953
H         -12.14693424855229   11.75267419475903    0.68537236814208
H         -12.32650370990368   13.44164825367780    1.16494775073589
H         -11.45415226296677   11.16282055592824    3.00710003441506
H         -13.04074586755916   11.93440076627510    2.98812497289795
H         -11.62060310078696   12.85138334830285    3.49108337963503
H         -10.85606134630564   15.54245065755999    1.61798587627292
H          -7.72923975640402   15.89331558457983    4.52678835356671
H          -7.08852916309832   13.55081711333413    4.16547249420130
H         -10.73366684386439   17.48615053719842    2.96018067718276
H          -7.97669029299396   18.03057194145268    4.15622164878985
H          -8.73086647206216   20.32722983876368    4.05986648785572
H         -12.85488168751310   23.58196761966616    3.70662921415226
H         -14.88784460977341   19.08926346453163    4.60009244975026
H         -17.88947124100887   23.37355041664313    3.59724190418235
H         -15.51098263509800   24.44198403193210    3.45421920310616
