127
 SCF done       -214.389884499946          0.000633447362
C          -4.18926103058343   -0.87025456152929   -0.65267317444961
C          -4.93865211940597   -1.28757853556857    0.42461130120930
C          -5.31402607265166   -2.62368288845228    0.65670645818118
N          -5.65938739248783   -3.69259823012211    0.89968153924840
C          -5.41520556060065   -0.44896075307735    1.45022430653784
N          -5.82690920814560    0.15934034183999    2.33482072986903
C          -3.61310408639469   -1.74297125382020   -1.67216152877066
C          -2.85575234436648   -0.94749409074055   -2.56617581362285
C          -2.18729181214715   -1.47706625763502   -3.64143519047576
C          -2.26392519533185   -2.86014102876005   -3.84230014124891
C          -3.02227520140532   -3.64497272887563   -2.94470156276155
C          -3.70289882617078   -3.10800830315941   -1.85671894863630
S          -2.98222079213474   -5.32361702834620   -3.38902278570201
C          -1.96858210531180   -4.96551126627879   -4.74490630954950
C          -1.67089255656428   -3.65366979180744   -4.86513120707235
C          -2.93813404841252    0.46958147800201   -2.15129442207892
O          -2.48211176274092    1.42123279874733   -2.75729993628877
C          -3.77460033830817    0.47736566292257   -0.93713209627311
C          -4.27495022771046    1.61550371831701   -0.32998315624555
C          -3.77591311480790    2.91129892042656   -0.42603886479870
S          -4.88687030038647    4.23906117814107   -0.19061264595694
C          -3.68954602333755    5.43477021524474   -0.58453893048254
C          -2.42921986647227    4.81621017257228   -0.79337443284293
C          -2.47409947099734    3.40458368985873   -0.67240459710187
C          -1.27486996375703    2.67687299617426   -0.69780024095676
C          -0.08262940295217    3.30801859661311   -0.93369730970710
C           1.21071085502820    2.56154048401997   -0.97205242373348
C          -0.05691272513348    4.71653392629241   -1.14043459054828
O           1.17684050628288    5.23241211813193   -1.38353509412851
C           1.30329342338870    6.61822599488734   -1.58302206762557
C          -1.21131012693780    5.46115478101536   -1.04826107484671
C          -4.00592440622457    6.78864367712411   -0.67274940935350
C          -5.23492739683428    7.31360731322659   -0.33526175449678
C          -5.59033485702797    8.64918640621951   -0.46239139994036
C          -6.80955097711099    9.15924808816077   -0.05003381681856
C          -7.28036730755810   10.48057665320253   -0.18679154844743
C          -8.52532135904915   10.69083274919343    0.33810403031382
C          -9.09056179052759    9.54572435682117    0.93097595956579
S          -8.00509896255604    8.18212867006159    0.77460152775987
C         -10.29720829257117    9.42278395676320    1.59875418063222
C         -11.29394486881107   10.40039873539783    1.80860804355411
C         -12.34753024184132    9.95981220290788    2.54818197074018
C         -12.24680687150519    8.60870046683718    2.98434637950010
S         -10.75483987665347    7.91842891496165    2.35785910254976
C         -13.13822776586542    7.99515938335155    3.81976960378022
C         -13.09989477528565    6.69036152333045    4.40141521019433
C         -13.95777258796915    6.43179607232655    5.49227039724815
C         -13.88927995486222    5.23186010871020    6.15157597623331
C         -13.01686099829124    4.22366339103939    5.69354951646657
C         -12.20298601674036    4.44323146948719    4.58935487428500
C         -12.23973089954189    5.66891014441724    3.96331238579376
C         -13.18297954814860    3.05414716645479    6.52065806518050
C         -14.16397161603673    3.32885197990932    7.49115526931703
C         -14.64433181399506    4.76023009071544    7.37428196793608
C         -14.16883698098918    5.48828283454236    8.65496223770410
C         -14.40958863739360    6.99130178688450    8.69670383866805
C         -16.16623022853515    4.85343576824931    7.19641545315535
C         -16.66323847630665    4.01886885252178    6.02127108413252
C         -14.51634198224236    2.38139276648797    8.41795681513880
C         -13.87427140020727    1.13255914601431    8.40453262333459
C         -12.89149981585072    0.87708490706534    7.43550430292920
C         -12.54852486159850    1.81834802276376    6.48929036298590
C         -14.13997341373068    0.13513041263235    9.40626054147469
C         -15.22065122499917    0.07405549910107   10.21570463199697
C         -15.40745939006146   -0.92062347374519   11.21670181912305
C         -14.46324945325106   -1.57807268181966   11.94146852301186
C         -13.04638580184375   -1.34593531116240   12.14518111305198
C         -12.40001960952477   -0.13699193549399   12.12629084317886
C         -11.03912974524243    0.02947909319520   12.45334007170605
N          -9.93293902169693    0.21787840093299   12.69632531006689
C         -13.02701396320471    1.09816718677453   11.86665459829466
N         -13.47850827309887    2.14258501648758   11.71314346613271
C         -12.47423135586643   -2.59078262382360   12.64672479361969
C         -13.53135322917626   -3.47763394537177   12.97742562378059
C         -14.81943175805404   -2.84718885920214   12.63340156853210
O         -15.93424291081297   -3.27881610083043   12.82430262046453
C         -13.30624094077414   -4.72150445706765   13.51619980182645
C         -11.98039949849505   -5.11292407513674   13.72648340640270
C         -10.93309446416737   -4.22746706000266   13.37556953648877
C         -11.15869515426180   -2.96547427525584   12.83870613729376
S          -9.38016694337193   -4.92650954570600   13.70946504239024
C         -10.12996734504024   -6.36535970102871   14.30924007192647
C         -11.47947706442499   -6.33295407832613   14.26269523254445
H          -1.62053069824019   -0.84448511801689   -4.30714303196204
H          -4.27295886433128   -3.74778307140095   -1.20389248541229
H          -1.65505969652978   -5.77349607125257   -5.37701856658019
H          -1.05511338522196   -3.24538635715545   -5.64628041038838
H          -5.20006752594704    1.51557083489603    0.22622934441422
H          -1.28886411861343    1.61678288303350   -0.50318245310467
H           1.05180350972311    1.50332351593385   -0.78542364261830
H           1.89771841841355    2.96157886901881   -0.22752148282408
H           1.68030837854060    2.68658290698874   -1.94638976332471
H           2.36093736559165    6.79318848974485   -1.77423677255459
H           0.99956735038317    7.18165277635442   -0.69447417695274
H           0.71925430459912    6.95531758029942   -2.44544027784082
H          -1.19549532025923    6.53372092470361   -1.15044946409554
H          -3.23352012101600    7.45950283064567   -1.02363866275963
H          -5.98042996977762    6.63574099784062    0.06396335555490
H          -4.88884390920488    9.34165642968962   -0.90933073545183
H          -6.69089411137448   11.24003019382205   -0.66994266891352
H          -9.03650327287838   11.63675828260570    0.32245532201935
H         -11.20515301646443   11.39669800203010    1.41390667994636
H         -13.19639272362944   10.56555049224152    2.81322296033644
H         -13.96357817584569    8.62050507528018    4.14167301003476
H         -14.65101930906251    7.19969136890712    5.80248298043346
H         -11.54886482142647    3.66557938130929    4.22573319104623
H         -11.61479208575625    5.83143669777999    3.10061738775746
H         -13.09770338453076    5.30193366918972    8.76648209428959
H         -14.66982118367164    5.02263574442799    9.50575095423075
H         -13.83658678331365    7.49950232788484    7.92579158061352
H         -14.08897119677007    7.37636192942436    9.66222243367986
H         -15.46277291486862    7.23012748954040    8.57314771552933
H         -16.44501951336249    5.89545478137207    7.03442235232169
H         -16.64935138812991    4.51482285612886    8.11513398150545
H         -16.20126293791781    4.35052733694573    5.09370864644380
H         -17.74215468435794    4.11431721163259    5.92195878634630
H         -16.42225910331145    2.96797308948689    6.16564507629873
H         -15.24626931747557    2.59915994566075    9.18120201095446
H         -12.39794643271403   -0.08445663584260    7.43577584510875
H         -11.79108998916576    1.60512371003975    5.75049967459307
H         -13.39771720369985   -0.65164730064637    9.48453251195056
H         -16.04771708086955    0.75314879172744   10.06235890272635
H         -16.42834242491436   -1.24252290132554   11.39997916873621
H         -14.12880836039601   -5.37292883027552   13.76757671707576
H         -10.32998088797713   -2.32720326287457   12.57977551263988
H          -9.50248935939861   -7.15937555298996   14.66491520206377
H         -12.11290103748472   -7.13653777769146   14.59227741316201
