94
 SCF done       -197.511151464910          0.000996174421
C          -3.65131617561874   -1.30293862408042    0.59701077823543
C          -3.97943744718564   -2.30762174555921   -0.27186888448546
C          -3.34066847327722   -3.56576992687058   -0.30268961920556
N          -2.85675526080426   -4.60410659612498   -0.36947233198469
C          -4.95864680270597   -2.20192405325258   -1.28383681223038
N          -5.71300738685369   -2.17809998471345   -2.14813342374655
C          -2.56811441396752   -1.32345196780038    1.56780943677859
C          -2.44661648879953   -0.03350660949868    2.14580507672399
C          -1.49904278677054    0.26362524122395    3.09681756725878
C          -0.62781798699083   -0.75467621217726    3.49264419727088
C          -0.75942898149618   -2.04104757589852    2.91311409244196
C          -1.71916037617896   -2.34395325896854    1.95506679565684
S           0.41426866942580   -3.14330451833847    3.55828149661585
C           1.06043226387269   -1.90054348507725    4.57259674812495
C           0.43127742866114   -0.71200399589252    4.44230032812392
C          -3.47364769540073    0.86095396839793    1.59050160326660
O          -3.69865002710748    2.00172508280111    1.92963144314645
C          -4.25163954576352    0.02261389335821    0.62820415597010
C          -5.41585545676838    0.40546987517975    0.05298653867738
C          -5.86452619582899    1.76964409897728   -0.01129443381411
C          -7.21716490433764    2.10494144419287    0.18759560302771
C          -7.65312815736451    3.47887743723590    0.20860546196506
N          -8.94082741822404    3.77037992251517    0.47800580482399
C          -9.78060796621925    2.79033020442015    0.68066807135936
C          -9.35382399078781    1.41605038686395    0.61599334158595
N          -8.10342594220762    1.11313139953981    0.39789177710476
C         -10.30567883926383    0.38092377012196    0.80600599346390
N         -11.10211163742961   -0.42297720442980    0.97790170648910
C         -11.13901856554669    3.09943291608983    0.92934019824085
N         -12.25343261169890    3.32819913033726    1.07038721179001
C          -6.76701243549381    4.54299478744856   -0.03399882376384
C          -5.45285174501661    4.20526313755042   -0.35998868507937
C          -4.99956582640168    2.82797511101137   -0.33195471997849
N          -3.71925703267142    2.72484799428619   -0.69901308808664
S          -3.15059137941814    4.18763838802556   -1.00085194417251
N          -4.46919044814385    5.03626091917734   -0.72699317442592
C          -7.28878720356496    5.92903381875344   -0.00720159608075
O          -6.35732844707655    6.99583736869145    0.07362993844796
C          -6.92472941661593    7.66266976390786   -1.05485910257607
C          -7.81460995726491    6.45724380755320   -1.39000481822023
C          -9.28656787510859    6.51372916397163   -1.46728278370428
C         -10.06097680750467    7.42434760496533   -0.85753325145970
C         -11.49312200795190    7.38779178427840   -0.75179189425498
C         -12.31113309934213    6.26036722238946   -0.99842772845471
C         -13.72049052406569    6.26139373578612   -0.68240584024875
N         -14.46670978807321    5.17805612480618   -0.95394816168937
C         -13.89798173372898    4.08830047497754   -1.39513085574168
C         -12.48390349223916    4.05773993330815   -1.62627779893753
N         -11.75702587426463    5.13394105496929   -1.47089385193858
C         -11.81635462293934    2.87053519718098   -2.01755456642423
N         -11.24905544703734    1.91285711704506   -2.28922630370732
C         -14.71272487231464    2.95415828685377   -1.63657724684811
N         -15.36371706397941    2.02895304698379   -1.81452317301285
C         -14.36601686635968    7.37956580582323   -0.11260315321654
C         -13.57422381561305    8.52649830053599    0.05120339582740
C         -12.16011425136010    8.51733169418884   -0.23856731335775
N         -11.59297310659526    9.69191919998486    0.06122446401169
S         -12.71118968303505   10.67910139931416    0.63598050282068
N         -13.97318590020971    9.70197392994985    0.54515496913721
C         -15.75023431390787    7.36631266055805    0.25178505202386
C         -16.47260084493261    6.30673847662647    0.67863253482142
C         -16.08657284899421    4.98072954831627    1.13688763688176
C         -14.96628725383831    4.65766677403558    1.85380271484591
C         -14.77780093046431    3.40032314915631    2.46856042761661
N         -14.61458008235351    2.40784566347291    3.01963640701889
C         -13.92124164945932    5.56452652508608    2.11398239229628
N         -13.05516639010202    6.28536722124546    2.33733690670210
C         -17.23928065483798    4.11611274420544    0.93538725767320
C         -18.37133213510543    4.92131272796038    0.63726895526872
C         -17.96669864317958    6.33496603097453    0.58659746020562
O         -18.65944575364324    7.31376230197945    0.44019037065393
C         -19.61512722389989    4.38062850054577    0.41013375016155
C         -19.74166797597401    2.98967200752010    0.46305959642703
C         -18.59922052082728    2.19627227920987    0.73824808796258
C         -17.34365768244054    2.74007287323641    0.98073862212611
S         -18.98828728359020    0.50845206465382    0.72752704044958
C         -20.64247175271655    0.86663563922467    0.37207629642654
C         -20.90010094945147    2.18847800266125    0.26001873099300
H          -1.43240042739584    1.25446183230176    3.51888566011357
H          -1.78630344359220   -3.33996065317949    1.54995244780575
H           1.88442437056081   -2.14102469857852    5.21596492120933
H           0.69467597867833    0.17257403849153    4.99332380469636
H          -6.09567555093025   -0.32851056125541   -0.36050108402561
H          -8.06135416357017    6.01391180721534    0.76689358673608
H          -6.16829728685040    7.90821175326579   -1.80246234189919
H          -7.46185989500417    8.56644519216044   -0.75574989092853
H          -7.40122758726196    5.86872952568415   -2.20965244579872
H          -9.74910300271272    5.67738204681299   -1.96846835753325
H          -9.61932925311311    8.28633676639334   -0.37490423705194
H         -16.28525680981772    8.30082702446797    0.12080912932921
H         -20.46269593861422    5.01194674881637    0.19232249004917
H         -16.49657488205077    2.10142479079645    1.17021691733647
H         -21.33279669588811    0.05261845270167    0.26392243001313
H         -21.86961662617420    2.59777155693764    0.04049341190431
