101
 SCF done       -187.838830717443          0.000910874243
C         -13.68714328276520  -11.95333437804001   -3.41617580608281
C         -12.50554375037475  -11.52703094772290   -2.84008938239347
C         -11.30830478888303  -12.26187306410831   -2.83983633770808
N         -10.28718388650481  -12.79024154140228   -2.79415133774572
C         -12.30390039764034  -10.31223261226336   -2.16565288215471
N         -12.01763073086914   -9.35749755360737   -1.58655671660226
C         -13.89216236210779  -13.26118086973307   -4.03501238812088
C         -15.24802051250653  -13.36359509681387   -4.43347108784506
C         -15.75725491095463  -14.48616317246865   -5.03536050958291
C         -14.88786736573417  -15.56103402868225   -5.25772643350887
C         -13.53748603932952  -15.44701718861100   -4.86012001828232
C         -13.02070507696753  -14.30937407686765   -4.24847121424538
S         -12.64943827667971  -16.89309232165198   -5.23207952628192
C         -14.06838269060795  -17.62221370791162   -5.90289303585734
C         -15.15781125160090  -16.82572452828938   -5.85386380244047
C         -15.94838696105908  -12.10499808551812   -4.09214536161712
O         -17.12477060529860  -11.85823350158548   -4.28377408354522
C         -14.92638550588922  -11.24040975671643   -3.48159996771492
C         -15.13202852429332   -9.93020760692020   -3.07641137010290
C         -16.32343341801426   -9.23119443218414   -3.11207905578227
C         -16.39716854297891   -7.91304223804814   -2.66571143594832
C         -17.51406943001022   -7.06719838068552   -2.59407506554054
C         -17.24270487208720   -5.82243379757876   -2.07161527849541
C         -15.90072657872619   -5.64811872249978   -1.72335025147482
S         -14.98166936744346   -7.08956332184665   -2.06368434696320
C         -15.23023425871299   -4.55511217452821   -1.16356302679615
C         -15.69290298781508   -3.32906401823475   -0.68271649472175
C         -14.69691589590879   -2.53353273407177   -0.15588868900268
C         -13.41663178947903   -3.09541327216120   -0.21767545082250
S         -13.50258685141497   -4.68109876506204   -0.95673030567716
C         -12.21745550524990   -2.55416828408234    0.24636720833484
C         -10.96819684646143   -3.11749656514963    0.08845649335822
C          -9.77699225751811   -2.72252301260638    0.71730281791762
O          -9.81391742592412   -1.62723014807110    1.50998451186330
C          -8.67177261725054   -1.35776393340768    2.29586984103908
C          -7.39639924164727   -1.45949307611866    1.48112472968515
S          -7.07353951621540   -3.21886069638625    1.07909515287187
C          -8.68378359519930   -3.57244473194693    0.48534977019053
C          -8.98418068298234   -4.68372423236601   -0.30968951611628
S         -10.64639657019076   -4.54553272273701   -0.96175152578719
N         -10.29519044536365   -3.59146078328664   -2.33085761019705
C         -11.39821551975036   -2.92044725145508   -2.99484604381720
C          -8.30363724978172   -5.86349752596320   -0.62227292379488
C          -8.89651498182123   -6.74544667439016   -1.56689383802165
C          -8.38763638102689   -8.06178789570207   -1.86613032798386
N          -9.01270212847469   -8.78901976141948   -2.81040390013235
C         -10.09013060046862   -8.32193494531997   -3.39106103049101
C         -10.61590266828696   -7.03557034497444   -3.08293098582806
N          -9.96615066756390   -6.27877473893833   -2.19920337023392
C         -11.73769428727880   -6.49663689714860   -3.73231831331829
N         -12.63144336322287   -6.02023784230763   -4.27569656695344
C         -10.73030462192949   -9.10720947537936   -4.38328441616904
N         -11.28051369591945   -9.71998144838273   -5.18001257319909
C          -7.23585915366263   -8.56155813150028   -1.22920365541732
C          -6.58765178250913   -7.66139957617478   -0.33911259002690
C          -7.10722924160666   -6.34731224318803   -0.03206422779815
N          -6.37352906468114   -5.71251345647068    0.86671603537917
S          -5.12535456196241   -6.64885827324969    1.29185998516837
N          -5.47983932607438   -7.91112854743135    0.35320663354216
C          -6.75430039490183   -9.89454151170524   -1.43884013086665
C          -5.48028721548351  -10.37483070175994   -1.12271717518000
C          -5.40678766742552  -11.74392731365142   -1.48222841912030
C          -4.38558651946325  -12.66619328520083   -1.39615513322550
C          -4.64654120927210  -13.96652913018598   -1.84882510776112
C          -3.84288443387292  -15.10353574067043   -1.90090855374674
C          -4.59519613469571  -16.17716422044311   -2.45150061032568
C          -5.87217156480258  -15.70334825601786   -2.73947521698271
C          -5.94788796551540  -14.33141114725881   -2.37989091339521
C          -6.97182247289451  -13.41481198231087   -2.46374455682602
C          -6.70263902910036  -12.11030512102975   -2.02190762288047
C          -7.50638870858754  -10.97998203722423   -1.98886039390724
C          -4.14483115659325  -17.52730752209386   -2.68501423852936
C          -2.93230358043087  -17.99949972407396   -2.40607568603623
H         -16.79511593648164  -14.53689161340173   -5.32650758304771
H         -11.98219755840217  -14.26918296709694   -3.96534920077073
H         -13.99505080555312  -18.61698952674298   -6.29740945501112
H         -16.12721169422925  -17.10892641504855   -6.22287744513625
H         -14.27054066216482   -9.39358344294272   -2.69651001080275
H         -17.21841144442650   -9.70934710439067   -3.48111095322252
H         -18.48681337184283   -7.38745357217135   -2.92204246171915
H         -17.97654413265349   -5.04682477710139   -1.94295278781719
H         -16.73145916578177   -3.05342296838631   -0.71289173840569
H         -14.86811201069017   -1.55951681281740    0.26795945600488
H         -12.27345435428856   -1.62466307853181    0.79820723711896
H          -8.62658549568985   -2.05235337068570    3.14507745762795
H          -8.82314217397969   -0.34218895487522    2.67194789507610
H          -6.53618924929848   -1.11847249671407    2.05109604652256
H          -7.48203967514010   -0.88891679456073    0.55662650572782
H          -9.81326404674098   -4.20143619185480   -2.98462985857716
H         -10.97210088402358   -2.31765212595917   -3.79570300036453
H         -11.88681492114514   -2.25845352215438   -2.28290034831968
H         -12.13438246053705   -3.60755068036911   -3.42060448637192
H          -4.68731313668137   -9.79681198715823   -0.68921571113196
H          -3.41680512656123  -12.40339714558349   -0.99427229937659
H          -2.81926468658407  -15.15926418967369   -1.57845205616985
H          -6.67540478617222  -16.27635117549370   -3.16584320412590
H          -7.94944068131338  -13.66519800367441   -2.84807766625580
H          -8.53110285417162  -10.93597517495638   -2.30249309001643
H          -4.88464504975417  -18.18400466544140   -3.12615604500251
H          -2.16427544673653  -17.38652464643636   -1.96649210628910
H          -2.66560522327027  -19.02219979062477   -2.60903843234070
