118
 SCF done       -215.853749512731          0.000904295037
C          -5.45678695174942   -0.18720726576884    3.83704111156973
C          -5.35360401757787   -1.53334018776496    3.60077455981605
C          -5.20353726444031   -2.50290201668136    4.61482627264773
N          -5.07763632135179   -3.33881574426901    5.39142731221260
C          -5.41783734684041   -2.15163488244033    2.33396786252936
N          -5.48172199704190   -2.73146862989381    1.34468303049507
C          -5.47364439579295    0.44225141252666    5.15297965429164
C          -5.72411164488514    1.82898021299396    4.99060104337542
C          -5.80521218586171    2.69808648325523    6.05197377986363
C          -5.62422262261230    2.17686132349984    7.33642498007972
C          -5.36929471456955    0.79271674877759    7.48977950582165
C          -5.29221878623175   -0.08729837893556    6.41602323642549
S          -5.17049158900865    0.37213890103873    9.16099955008877
C          -5.42677797418685    2.01655573695676    9.63095135735411
C          -5.65061623411677    2.84899651228333    8.59067375353687
C          -5.85707691963060    2.12995058803925    3.55906848878311
O          -6.10227333545260    3.21824515912916    3.06585713452252
C          -5.62247995000036    0.86522100059144    2.85034181011100
C          -5.48820744735048    0.72241873428391    1.49461064311225
C          -5.60512808911925    1.67540473905542    0.47273442537231
S          -6.08258091359703    3.34310580056776    0.64608557562785
C          -5.94315536621134    3.61650226829713   -1.05614827008769
C          -5.52686038652359    2.46389331410283   -1.72765929481092
C          -5.34457903439612    1.37800240090706   -0.87854455327968
S          -4.78465487278357   -0.22182230589103   -1.33759439547575
C          -4.45096672280183   -0.23289352486527   -3.07785663112630
O          -3.92356188249841   -1.21570161664267   -3.51661446200850
C          -4.83417962469493    0.88771039164480   -4.02087496025807
O          -4.76081863616123    0.71139695019289   -5.20582523643530
S          -5.34781326919870    2.48460775796575   -3.47817419554561
C          -6.19168943287455    4.87682982929790   -1.65820328961670
C          -6.68981851142511    5.93987269672462   -0.98827166257126
C          -6.93347092696702    7.24830881502176   -1.53286419727606
C          -6.40009694538298    7.65788606338021   -2.76700588685127
C          -6.64682507294839    8.92827179512877   -3.22020974385788
C          -7.44580288877411    9.81723096301587   -2.47562744816260
C          -7.98138413868227    9.42448301454663   -1.25544671414374
C          -7.71089437396856    8.15408746633927   -0.79313952860801
C          -7.52421740824396   11.07021029553617   -3.18935179440418
C          -6.75475329423512   10.96708733314155   -4.36369743261579
C          -6.14741675326477    9.58947333291201   -4.48315743772756
C          -4.60877073634646    9.65086631864856   -4.51132002653700
C          -4.02153479093166   10.34757388093529   -3.28966509947485
C          -6.65930625910196    8.86083274048157   -5.74028879450709
C          -8.17891444135475    8.75695716935812   -5.78680204912561
C          -6.63129567072494   12.03719528286193   -5.21110550038374
C          -7.29274352831144   13.24576585388358   -4.91940362458756
C          -8.07662788193038   13.32141371875569   -3.75392601794708
C          -8.18996315502352   12.25314894882096   -2.89137094653972
C          -7.11834206790127   14.35066183560714   -5.81657487139532
C          -7.75816306590320   15.54954753010632   -5.76489128760022
C          -7.51776284607678   16.60408458781691   -6.66382484668962
C          -8.19848587946018   17.79480409817721   -6.63042691137326
C          -8.03432787217890   18.92242384377648   -7.47198918277766
C          -8.88445021087360   19.95310463267303   -7.20267598842831
C          -9.77405766584282   19.69154349213698   -6.13693174995631
S          -9.48091891746724   18.10844994423935   -5.46895917789076
C         -10.80457145395705   20.46929888292419   -5.63882772281791
C         -11.28261246839632   21.73388985379032   -6.03449901260961
C         -12.40563253778090   22.12528637886479   -5.36319097766499
C         -12.88875162880467   21.18343180356335   -4.42266554971754
S         -11.81669851590115   19.81383124822504   -4.37331791362615
C         -13.99216087890269   21.34245328866495   -3.59780323572188
C         -14.52783389453274   20.44256338181531   -2.68055912710165
C         -14.35409823026203   19.07458994203185   -2.53779248252306
C         -13.95521251835304   18.04572114080046   -3.44561253882365
C         -14.05644741440747   18.06658053346840   -4.82145621241792
C         -13.64498490878957   17.01533974579372   -5.65890396173783
N         -13.30031871156482   16.20126186593266   -6.39331342317960
C         -14.63754623235626   19.13027568094367   -5.53392524393214
N         -15.10408872977543   19.98043872542669   -6.14962927738449
C         -13.55261371454517   16.88626027769233   -2.65466270085050
C         -13.92250429827638   17.11156791577215   -1.30703878557584
C         -14.52881787043129   18.46177860092871   -1.19994650816002
O         -15.01353390021935   18.97290725997035   -0.21404698920589
C         -13.66816715337675   16.19862695446922   -0.31482637188242
C         -12.98687954950626   15.02553741758504   -0.66694907982743
C         -12.59966406546161   14.82784747741859   -2.01087504206432
C         -12.88335057264233   15.73829083411302   -3.02258510274786
S         -11.72409064569182   13.34061103191174   -2.21681929352631
C         -11.89550974954270   13.00639994067895   -0.51369180738343
C         -12.57220994870643   13.95436598786225    0.17389754869860
Br        -11.14309567557033   11.44146817094469    0.19313226534923
H          -5.99962967181062    3.74751896286082    5.89413539365536
H          -5.09231701270714   -1.13181964250928    6.58636631107539
H          -5.39217602601375    2.26219467573379   10.67458096540642
H          -5.82892146327684    3.90419795888015    8.69121977112033
H          -5.22687800467239   -0.26440355596113    1.13019436350739
H          -5.97136853758535    4.93860602344816   -2.71518668240030
H          -6.94778247818739    5.80435823222602    0.05528821469129
H          -5.77887536062836    6.98508918266830   -3.33752624495522
H          -8.59039443726505   10.09860625824588   -0.67407342623460
H          -8.11395316905936    7.83666541070510    0.15725261744144
H          -4.29683594636027   10.17872956876668   -5.41483706099668
H          -4.21905796824474    8.63268110666001   -4.56962260616480
H          -4.38513952364473   11.37030994089454   -3.21747774843070
H          -2.93662755899141   10.37222058918131   -3.35952007239478
H          -4.29538556458345    9.82158890867266   -2.37774992253542
H          -6.22674749229080    7.85859651945137   -5.76287856362315
H          -6.30511462858250    9.39686568129499   -6.62320760473898
H          -8.55406705274349    8.20947720652924   -4.92498507863937
H          -8.48906925698945    8.23365197148899   -6.68804194007055
H          -8.63353236462345    9.74515092185576   -5.78952975759851
H          -6.03277291140004   11.96660374276255   -6.10829805645888
H          -8.58962209477008   14.24088721295644   -3.51900630977563
H          -8.78443404255607   12.33319467577567   -1.99426925192834
H          -6.40229011683586   14.19569837261399   -6.61532910467326
H          -8.50683584549048   15.73313685361132   -5.00613444618020
H          -6.75850616968843   16.47739267002187   -7.42446626796576
H          -7.29513459184488   18.93326523078019   -8.25366768857331
H          -8.90600000795734   20.88273198830904   -7.74242997244243
H         -10.80194792818100   22.31244540283817   -6.80274750144919
H         -12.92441454397545   23.05065453843534   -5.53855123732027
H         -14.43734899583153   22.32919614214592   -3.61895927298227
H         -15.12541242946961   20.88342515846767   -1.88761063654533
H         -13.96739296989590   16.38437368074536    0.70479245018327
H         -12.56748012844033   15.54886564271066   -4.03498970423680
H         -12.76827320404814   13.90805105729531    1.22976274187097
