83
 SCF done       -172.328561184197          0.000552104342
C          -2.37384926442022    0.50407101994491   -1.60385827525634
C          -2.72685581055411   -0.44480441438941   -2.53297737187432
C          -1.80608314267335   -1.10382496845878   -3.37324165192140
N          -1.10544873819116   -1.65935111973069   -4.09354618117494
C          -4.04675759547320   -0.84121323065187   -2.83043570726350
N          -5.09367524373634   -1.19271193002103   -3.14715389670491
C          -1.02117000406339    0.99899245793040   -1.36902014714446
C          -1.08738799504698    2.09271855443689   -0.46869051281136
C           0.02875951897582    2.78285066910990   -0.06211271216354
C           1.26908785327731    2.37329672440339   -0.56176544962105
C           1.32539379621205    1.27525517642922   -1.45264399555370
C           0.19617848876162    0.57779112609281   -1.86700214064258
S           2.95789398860752    0.94085632028130   -1.93639977455201
C           3.53925944768920    2.24813549922535   -0.96419589211830
C           2.56283399931188    2.90827497577413   -0.30408592472699
C          -2.49042524938795    2.31811864923367   -0.07528918283597
O          -2.90745255822197    3.18795578374000    0.66411546132302
C          -3.26835636902982    1.25706439092225   -0.75580626499736
C          -4.60573637210248    1.01055250653896   -0.55322069200734
C          -5.46780972192876    1.81193679801019    0.19818371083860
C          -6.80262099032733    1.50941942177969    0.36218951714005
C          -7.78747961806122    2.30816298026726    0.99338987397369
C          -9.04287430070251    1.77992550926594    0.95219194240552
C          -9.10547854054905    0.52200929574279    0.31029850778791
S          -7.52422881632293    0.03735493517215   -0.25104542980635
C         -10.21022674680355   -0.28343254726357    0.09903507285190
C         -11.57252349545962   -0.00031753634789    0.35676366118944
C         -12.41888020858783   -0.99500433785778   -0.02002800296812
C         -11.77415273801635   -2.13987249515392   -0.56933819003879
S         -10.03687605601858   -1.87408584266128   -0.59537131064303
C         -12.40440026738056   -3.24359500597849   -1.07360065686818
C         -11.79280593261540   -4.43221325432793   -1.57674420179856
C         -10.51853310030871   -4.85603440236482   -1.17675782175573
C          -9.94754948459675   -5.99724893666372   -1.69685991415828
N          -8.74642986305815   -6.46506267636998   -1.04466184907834
O          -8.00080894812920   -5.63355821348217   -0.58279739485246
O          -8.60411264826130   -7.66515185843574   -0.94248660759479
C         -10.58477517635590   -6.74442184293575   -2.70995611694520
C         -11.89724251213760   -6.36314591374173   -3.03915197069826
C         -12.49172642273375   -5.26479636753958   -2.47420625695909
C          -9.93835895647258   -7.79892933020363   -3.42675477157825
S         -10.83596497081567   -9.03439043721202   -4.26942169095871
C          -9.40758692591168   -9.83673601612707   -4.89023107155576
C          -8.26934498422818   -9.12644649940314   -4.47938723362703
C          -8.59327664483047   -8.00424058462161   -3.66856557588485
O          -7.49738843548026   -7.30987976128680   -3.33081524509751
C          -6.45068280635598   -7.97461670992548   -3.89943787476523
C          -5.14376865274841   -7.48993905177567   -3.71439043007393
N          -4.07119612508452   -7.11066177788998   -3.57842182521808
C          -6.85609676466391   -9.07813460944793   -4.60782212083196
C          -9.58838117692374  -11.00907901177667   -5.66661088480253
C          -8.55078471410126  -11.86297615318608   -6.13303904601505
C          -8.84376901113679  -13.04265976717979   -6.92088444636299
N          -7.83609957509719  -13.83483614043453   -7.35093739066487
C          -6.60856835781837  -13.52894928569562   -7.03396572128633
C          -6.31929573113772  -12.36875041615730   -6.24010149666337
N          -7.28249358055540  -11.58012871256761   -5.82352724316049
C          -4.98151977986386  -12.05234189806118   -5.90112777640484
N          -3.89141565117260  -11.80951966588970   -5.64414314685362
C          -5.54370952697360  -14.35399970301040   -7.48213901215797
N          -4.65747049383651  -14.99448444050707   -7.82163051148388
C         -10.14002846784490  -13.40803438823653   -7.26092387709545
C         -11.17002169355395  -12.59602046983997   -6.80557586567809
C         -10.89842551244079  -11.41729365532930   -6.01538605002908
N         -12.02027564772809  -10.78410932966979   -5.67680570221918
S         -13.27975847785941  -11.58118837880870   -6.28326813020555
N         -12.48393813727700  -12.76373443574112   -7.00462504133286
H          -0.05314638118383    3.61325318908703    0.62207370801912
H           0.29159212749631   -0.25517188359119   -2.54324881011382
H           4.59383348708500    2.44388655420143   -0.94709038339760
H           2.73614351703563    3.74641805277468    0.34643496928225
H          -5.04102744512739    0.13229369058085   -1.01508042275345
H          -5.08569959038386    2.71969056491218    0.64268465943822
H          -7.53578119352915    3.25204323649793    1.44321007973220
H          -9.91399327347432    2.25044185194706    1.37165208308794
H         -11.88701030717173    0.93312224922308    0.78765185525004
H         -13.48888749893129   -0.95487196101124    0.08253401947961
H         -13.48412153594360   -3.19587578243969   -1.13688534439552
H          -9.98312114108620   -4.33952673300310   -0.39480359318435
H         -12.42659859625454   -6.94942658077259   -3.77518258080400
H         -13.50088617160666   -5.00148397880750   -2.75343040796708
H          -6.21307820869577   -9.74923455371026   -5.13427255604830
H         -10.32279014783009  -14.29094318609485   -7.84805434348098
