122
 SCF done       -206.900863971522          0.000770518764
C          -7.37627316159015    0.57220573605949    5.43790567690744
C          -6.94311509077834   -0.71654899504001    5.25954341383927
C          -6.90259975732203   -1.68478951855473    6.28512771264235
N          -6.84635782251012   -2.51885024001046    7.07187738102593
C          -6.45771421517788   -1.26671367713573    4.05448432079449
N          -6.04064325577299   -1.79132631916441    3.12184101719552
C          -7.83147681991355    1.14062031375503    6.70283173901627
C          -8.13158779217384    2.51249052105722    6.50376580207210
C          -8.58046391018803    3.32996487033783    7.51301106329862
C          -8.74609506931470    2.76740747655368    8.78198244145378
C          -8.44864809197174    1.39639974834961    8.97226290937676
C          -7.99163683339786    0.57050887277097    7.95114583887188
S          -8.73012351074100    0.91496735464404   10.61508008890145
C          -9.23198420415383    2.51852932540765   11.02508578404218
C          -9.19366170842153    3.38086360247031    9.98570111030442
C          -7.88831008308494    2.85808175095823    5.09743307766925
O          -8.03849637890444    3.95542721344005    4.58487306533268
C          -7.44096227677213    1.62488657428471    4.44021671646797
C          -7.16777889305893    1.48839336969178    3.10361921986288
C          -7.19558417775533    2.44418777679071    2.07873221325685
S          -7.55783355145514    4.13819461683041    2.23256853160074
C          -7.29626250681911    4.41727489983729    0.54129835903944
C          -6.95441567292119    3.23296098583008   -0.12195457210166
C          -6.90075049185561    2.13649757640111    0.73560779616061
S          -6.53574212786767    0.47195060756649    0.30243141575167
C          -6.28973073079563    0.35129873876876   -1.44592495178143
O          -6.10890195914069   -0.74782353937610   -1.88903083347841
C          -6.27352302882075    1.54439150208597   -2.37099605890422
O          -6.01368438199772    1.39314290688414   -3.53359763908397
S          -6.62659325938213    3.19329537410301   -1.85111823555912
C          -7.45922864457142    5.75624888523112    0.09966853032522
C          -7.24419766499037    6.26029649863802   -1.13667188703078
C          -7.39420112454560    7.63782618213477   -1.52399103598064
C          -6.96778803990378    8.01515882804823   -2.81093448568395
C          -7.05781397878304    9.32596768004155   -3.20408260957961
C          -7.58836482314729   10.29597929498732   -2.33391601828605
C          -8.03505386030467    9.93435862009282   -1.06931790864011
C          -7.93292771843740    8.61786775242424   -0.67510567366127
C          -7.54382359332171   11.57983204706012   -2.99260768061927
C          -6.98429543710976   11.41016226031616   -4.27152307509358
C          -6.63931142146394    9.95828789863851   -4.51135470351687
C          -5.13122525302633    9.77386462166720   -4.76381451576600
C          -4.27052535054006   10.31520164647770   -3.62867646095866
C          -7.43487586350906    9.37903100584088   -5.69611851656445
C          -8.94203021359362    9.52779250556424   -5.52699923312740
C          -6.81204764806193   12.48774112134550   -5.10403242061924
C          -7.18765117789773   13.77244045330199   -4.67541948860750
C          -7.75477596488979   13.91845924810552   -3.40038906264108
C          -7.93574897649642   12.83991685995339   -2.56156128891600
C          -6.96658623933002   14.88711471753667   -5.56225210521829
C          -7.15843295481974   16.19015877452575   -5.27097338861716
C          -6.91900332231323   17.26718139696533   -6.16765408357999
S          -6.36514244308970   17.01161138591853   -7.80007030813259
C          -6.36990628290980   18.72146613365389   -8.12986446322594
C          -6.78949001142275   19.43349572488974   -7.01759579643238
C          -7.08473301322319   18.61853595680230   -5.91351442353724
C          -7.54826553350200   19.16943264578140   -4.59868106457843
C          -7.25969439730978   20.67445354495541   -4.50304272025508
C          -7.91936221110825   21.21295087381176   -3.33530496120754
N          -8.46928425175388   21.60984662433362   -2.41618928352046
C          -7.75731993195407   21.37778526175243   -5.78244841100913
C          -7.66429989323363   22.81324189154732   -5.64326588017433
N          -7.55607296334625   23.94678185073803   -5.55145451538462
C          -6.90775309439714   20.92742797906449   -6.97960733746439
C          -5.97565346034962   19.24779302343855   -9.38941793782444
C          -5.58639622405051   18.50215250486839  -10.44738160803872
C          -5.18823949272982   19.01793000901525  -11.71667595045111
C          -4.80242861811291   18.25341746134791  -12.80930128320498
C          -4.48022049786275   19.12433210678810  -13.89065748310920
C          -4.05144870249485   18.87714690431861  -15.17198878136683
C          -3.81589462666929   19.98473620468285  -16.00719673235800
C          -3.38400279306508   20.06980280686590  -17.32315040890293
C          -3.30662013741394   21.44755027941132  -17.70188707644946
C          -3.69331428649805   22.21019819094426  -16.61576793609241
C          -4.02064699718481   21.33734359674197  -15.52987469541697
C          -4.44875486509085   21.58670050996745  -14.25327007160851
C          -4.68458305699845   20.47727707044101  -13.41442346772535
C          -5.11222556902932   20.39810145343157  -12.10057389090408
C          -2.89862637881955   21.97211836212679  -18.98317877040271
C          -2.51370564752776   21.24816847022150  -20.03048039095359
H          -8.79719854565036    4.37047364043287    7.32693399423734
H          -7.78096095718510   -0.46690201150887    8.14966994267258
H          -9.52972373781454    2.71927185855084   12.03588613569858
H          -9.46965026883805    4.41771397285285   10.05251013529542
H          -6.88747797179467    0.49930648481405    2.76145304681004
H          -7.77259825225555    6.41893510960583    0.89557374493682
H          -6.90088073407574    5.60295018918729   -1.92209110652142
H          -6.55938787467090    7.26434458547121   -3.47222324724106
H          -8.45214855363499   10.67368010795001   -0.40211442212231
H          -8.28188877541302    8.33830213712160    0.30639183357820
H          -4.86811140376072   10.28404082863645   -5.69263210281998
H          -4.92671687698582    8.70977292037574   -4.89820607091661
H          -4.44571043953798   11.37945850901137   -3.48719755774513
H          -3.21729813432759   10.16691578365122   -3.85515825644471
H          -4.49699224553246    9.80353439227113   -2.69580785867500
H          -7.18457878468362    8.32136939777720   -5.80103443311078
H          -7.12092304343182    9.88881821488319   -6.60933637282865
H          -9.28172817802056    9.01215249804717   -4.63138990237992
H          -9.45761977958047    9.10259096550180   -6.38490496787141
H          -9.21828746410550   10.57674732679142   -5.44455121350685
H          -6.38036158462656   12.36517654192293   -6.08730117504960
H          -8.06354598037651   14.89582200926572   -3.06361330097253
H          -8.37359508165568   12.97558703682039   -1.58386209716176
H          -6.59506306420115   14.63677768921401   -6.54890867657043
H          -7.51824842730928   16.48075312430647   -4.29430003949807
H          -7.04909529995784   18.65527096117864   -3.77357852113600
H          -8.62604215657251   19.00006061146279   -4.48810503165493
H          -6.18041831429517   20.84366255542192   -4.39953386711734
H          -8.80942181841771   21.11379530154984   -5.94862103329825
H          -5.90951787081304   21.37502417114850   -6.90403590176718
H          -7.36313633276585   21.29577065420001   -7.90223575570601
H          -5.99576840044346   20.32512333611714   -9.47232427188677
H          -5.56902056416731   17.42385927322202  -10.34500566560447
H          -4.75338259138727   17.18030686573362  -12.84154034223329
H          -3.89665910501510   17.87092616066897  -15.53596272872012
H          -3.14519903368566   19.23678849067327  -17.95899448026190
H          -3.74300339033397   23.28347484765593  -16.58011907941619
H          -4.60391578860125   22.59275184908995  -13.88873815953909
H          -5.34771131322969   21.23528662467522  -11.46873739237600
H          -2.92046845882895   23.05241453735554  -19.05915440203032
H          -2.47584975019099   20.17269819533534  -20.00405885299086
H          -2.22268823577761   21.71053569873690  -20.95765218793914
