120
 SCF done       -218.895489493535          0.000753344198
C         -11.69761778012903    1.51257988981114   -5.59531473742052
C         -12.07571505035635    0.23771662459696   -5.26248532356229
C         -12.86337740988685   -0.59325162729883   -6.08544120640032
N         -13.49359472633767   -1.31562647936286   -6.71733967481859
C         -11.77095367383588   -0.39778110287452   -4.03993568253925
N         -11.59769040772504   -0.96847189770819   -3.05874288485634
C         -12.10223712542558    2.24297061208275   -6.78832753259363
C         -11.62681774082858    3.57475852916738   -6.68782392561257
C         -11.85593091901075    4.51467908194343   -7.66356539543424
C         -12.59148416779133    4.12593566173266   -8.78742982500252
C         -13.05746941354044    2.79265415782389   -8.88021623243629
C         -12.82381430307171    1.83982041365209   -7.89583958819705
S         -13.93099183351344    2.53328369258720  -10.35735124872206
C         -13.67328371446767    4.17793349983923  -10.82686559739796
C         -12.96643155777265    4.89423695726637   -9.92568170290414
C         -10.86132775028356    3.73572891310591   -5.43759075387447
O         -10.22949343797419    4.71671314999984   -5.10499073015940
C         -10.91167628675176    2.40883683020240   -4.76971157390695
C         -10.16424747699899    2.05037399246223   -3.68841009212727
C          -9.54686264696156    2.94622550973628   -2.77120177250774
C          -8.33149669137626    2.59365552322471   -2.14290346482498
C          -7.64031202272322    3.48936335000334   -1.25299534465801
N          -6.58423104853665    3.05721032983760   -0.56238396103416
C          -6.09080232680818    1.86665721605180   -0.82087219742637
C          -6.66491385687908    1.05151416495537   -1.84866136815866
N          -7.77645495842586    1.40518046257254   -2.44186050021506
C          -6.04070005078029   -0.17078376164186   -2.20551427909815
N          -5.48924720179268   -1.13923884408596   -2.46937524526152
C          -4.98224312801118    1.41697472627980   -0.06864235157972
N          -4.05663110047088    1.05856263666133    0.50548477396007
C          -8.09729380755840    4.82180940631577   -1.04837525808710
C          -9.38448573532349    5.11176127498670   -1.55314971270876
C         -10.10565229661456    4.18562574382616   -2.38894074505015
N         -11.31525070305674    4.64908278590279   -2.69815443189663
S         -11.50057280386477    6.10622506772355   -2.06096884371670
N         -10.07396489351012    6.22799995525521   -1.32709776838129
C          -7.31656487601636    5.78718624560162   -0.39144803345516
C          -5.92336997935411    5.77625252008153   -0.18321299118711
C          -5.46690023375882    6.91439073876635    0.54396939972640
N          -4.17631338835502    7.03099014594231    0.90339967573674
C          -3.37562655449074    6.08161243111090    0.50904569126103
C          -3.79153342831386    5.02037829247327   -0.34590698030878
C          -2.80662195905490    4.05215869601702   -0.90155560746848
N          -5.05374846761346    4.88194505187574   -0.66809605755185
C          -6.49330252121673    7.82037505598617    0.86279617491600
S          -8.00679282686087    7.25362029383091    0.23214394092996
C          -6.31697850063625    8.99155626035727    1.62654201892206
C          -7.30595943050593    9.86098642543073    1.95131143256656
C          -7.16376801067723   11.06256306260758    2.72316908522634
C          -8.30021102233284   11.86578160922197    2.93632251273467
C          -8.19321593387990   13.02312666726430    3.66511581196472
C          -6.95481201403531   13.40872933744880    4.20973059323969
C          -5.82553914278570   12.62192078212870    4.01646300452333
C          -5.93665655590737   11.46423016384830    3.27920058957382
C          -7.12585859020603   14.66617512630231    4.89670975093644
C          -8.47011874479785   15.06658236265140    4.77749406499782
C          -9.27289676695320   14.01470026769620    4.04604587458979
C          -9.99869106039052   14.58259692312045    2.81770234906337
C          -9.03731330867724   15.21249248559698    1.81597703860621
C         -10.24815746370816   13.27917834725655    4.99721625087407
C         -11.28552825399446   14.15239189876440    5.69047755865233
C          -8.87123949843890   16.28010876508273    5.27936567634904
C          -7.95277681106517   17.09747968275797    5.96180544592279
C          -6.62527605613223   16.66433031342621    6.09692918653482
C          -6.20564097318100   15.46615314208303    5.56255868494512
C          -8.43315372084066   18.32781731749534    6.53217600879253
C          -7.71152067423842   19.23184692153087    7.23379116357239
C          -8.21903367936423   20.43744515116912    7.78783150449419
C          -9.47638529621409   20.79647752696418    8.16772914917323
C         -10.71743358637300   20.07902115061525    8.37593634131674
C         -10.86678568097818   18.76119744306071    8.72634813461679
C         -12.11007400282468   18.14500139998989    8.97531056952323
N         -13.08983160872300   17.57769393471367    9.16638375557496
C          -9.80138836419116   17.86641984209127    8.94430489254810
N          -8.98102294153277   17.09326317979437    9.16137009464817
C         -11.79283137064585   21.06720192594659    8.39210550717921
C         -11.22162716359994   22.36505809827961    8.42589046451078
C          -9.75495589656719   22.24854557663866    8.36552105064342
O          -8.93447698482864   23.13668521237562    8.42122024272546
C         -11.98406726502978   23.50601650038991    8.49584097959428
C         -13.37439172246037   23.36192612756838    8.52334064975580
C         -13.93563944620225   22.06330665404533    8.47152965711953
C         -13.16511068137130   20.90816891241734    8.40779375775337
S         -15.66961909550338   22.12659388620791    8.50711609935446
C         -15.62919025428993   23.85358082825349    8.59626971167891
C         -14.37987273361279   24.36701296020353    8.59627825629215
H         -11.47964179777213    5.52085974211888   -7.56136117771848
H         -13.19157284335625    0.83425443625812   -8.01495777176272
H         -14.07305822038536    4.51132029359773  -11.76481164053870
H         -12.70980323695221    5.93093402995839  -10.04870928692038
H          -9.96123806600151    1.00214763955754   -3.50668302850382
H          -2.34384203485447    6.15829669622122    0.82286102580677
H          -1.85078987150645    4.53438115431026   -1.09034065204846
H          -3.18966456165772    3.61451321777950   -1.81954315077344
H          -2.64982992343826    3.24505524873936   -0.18462526643627
H          -5.29560934207677    9.15319493756773    1.94109560311727
H          -8.30620244558897    9.64010154717624    1.59663706900099
H          -9.24682616539560   11.56067586403510    2.51380741071806
H          -4.87504695802642   12.91375408613119    4.43682097077306
H          -5.06105396144329   10.85328304198158    3.12858870947403
H         -10.71762170485512   15.33528999339615    3.14316723669636
H         -10.55350311951458   13.77705973714837    2.33240942766018
H          -8.48174412320286   16.02635364732704    2.27713330328159
H          -9.58795176550718   15.60995624815593    0.96653037937694
H          -8.32468870479297   14.47657997433482    1.45000380672108
H          -9.65307661004696   12.77365313966797    5.76208693778375
H         -10.75904190966450   12.50935937956026    4.41443934068094
H         -10.81171203871913   14.85022792959961    6.37568038260404
H         -11.95614752996541   13.52110384735730    6.26899105628143
H         -11.88436878537224   14.70752548933518    4.97310499093425
H          -9.88820800371910   16.62332211545988    5.15879561154154
H          -5.91454572236727   17.27998012120748    6.62424726114647
H          -5.17686037929234   15.15392099801640    5.65978563709059
H          -9.48039758236769   18.53950497099563    6.34888972717008
H          -6.64474084236716   19.09543620854966    7.34135538258959
H          -7.49516255604486   21.24270143158327    7.88898944027962
H         -11.52046265169240   24.47962796939897    8.53068412574277
H         -13.63912205198909   19.94151745336555    8.36532373645696
H         -16.55946807351225   24.38555057307659    8.64372569278612
H         -14.16062182498272   25.41817674645972    8.64627375476113
