117
 SCF done       -211.505763038451          0.000214941313
C          -2.02042929252984   -0.60788850183349    0.21501157946134
C          -2.51038562683634   -1.88451200569431    0.12509413708900
C          -1.70292674867062   -3.03929884259881    0.07187856576316
N          -1.09618074046427   -4.01313922377434    0.03048820492897
C          -3.87899053986607   -2.21384810712197    0.02591291396658
N          -4.96680710434991   -2.56117436456869   -0.09373252814497
C          -0.61570982829107   -0.22483809881446    0.19009268154538
C          -0.53108624092672    1.18970847657853    0.15081590441457
C           0.66970641641659    1.85661200315719    0.11266928699123
C           1.84164928236722    1.09430186089640    0.10637319677993
C           1.74693507570665   -0.31737652175301    0.14976523388956
C           0.53326775126239   -0.99313644364444    0.19306066934589
S           3.31905161888432   -1.05285529004473    0.14328187931997
C           4.07340029727744    0.50248524495853    0.08025702659430
C           3.19633367029169    1.52974141261813    0.06588064513877
C          -1.88574827456964    1.76959677200682    0.18731171409226
O          -2.15909971139253    2.94798064308319    0.27601119207263
C          -2.81293523874583    0.60707359361919    0.23931887569252
C          -4.14922051869678    0.69615307830396    0.47800783275304
C          -4.92866270205503    1.88011210915803    0.30850559093867
C          -6.00055368640948    2.17005821821710    1.17710050706056
C          -6.74591472434650    3.40114990154374    1.08107273173819
N          -7.77199654324683    3.61790473613032    1.92003203687693
C          -8.04475435084318    2.73271985324516    2.84665355768654
C          -7.25912128843395    1.54057013339627    2.98133714973875
N          -6.27883135695928    1.28617809966887    2.15230842649656
C          -7.55365839753227    0.61906825372990    4.01759707767006
N          -7.82011563544339   -0.09136965209066    4.87574552898488
C          -9.13749493062248    2.96561112313806    3.71790603502686
N         -10.00689286164948    3.13269930049760    4.44519913660097
C          -6.45615457761281    4.37871859776160    0.09959928038186
C          -5.47353718768695    4.02283254396806   -0.84531318917478
C          -4.71897284218567    2.79353267320575   -0.74137806949980
N          -3.86383387580805    2.64644278964533   -1.75272588030512
S          -3.94444015343436    3.93772155825653   -2.69439742755315
N          -5.08739710265239    4.73972086901674   -1.90763487929068
C          -7.10990527622274    5.67071306462646    0.07260696147022
C          -7.35410622148014    6.30196139230597   -1.15860732209877
C          -7.91740577628545    7.55175929329028   -1.18344042813351
C          -8.29775558547253    8.18109878592641    0.01767014897772
C          -8.07195928160694    7.56080470697523    1.24092806159809
C          -7.47373917431934    6.32046865123207    1.26162804747723
C          -8.89384697049140    9.45322142476975   -0.29685539060116
C          -8.88539043625504    9.62359734239869   -1.69575410551229
C          -8.26484676112489    8.41888224907438   -2.37738167465519
C          -7.00751953447720    8.89506579759552   -3.13579262389482
C          -6.19929171078133    7.81404991508294   -3.84314068134030
C          -9.26994186719166    7.64481333579113   -3.25474638204770
C          -9.75822967764978    8.35992691597430   -4.50849204945444
C          -9.34498802605306   10.79387097476196   -2.24179604136686
C          -9.86057407487000   11.81239913788833   -1.41505837276979
C          -9.88836108243848   11.60571450167401   -0.02508429554848
C          -9.40563939691447   10.44461832763516    0.53405280376364
C         -10.33383869792825   13.00715248160464   -2.04665221692105
C         -10.73686375960318   14.15712654373347   -1.44010893521261
C         -11.20437539130779   15.32002094185867   -2.08712687116891
C         -11.50970802549754   15.52097183086941   -3.41222770350385
C         -11.94727905763597   16.75299164314863   -3.96597913622385
C         -12.21506951489568   16.71906550911732   -5.30037677875246
C         -12.01464727644956   15.45140014704414   -5.88855518255096
S         -11.46482784070465   14.30956547425133   -4.68085246445952
C         -12.18536145749572   15.06493347093249   -7.20143959641126
C         -12.54046563037365   15.85158681480574   -8.32105489181463
C         -12.59818627828952   15.15458969498867   -9.48579481157501
C         -12.29055103191328   13.76803353033475   -9.37132246946523
S         -11.94332265712401   13.40126738213189   -7.68729987111454
C         -12.34791264161799   12.88681612799792  -10.41360644855682
C         -12.08132662050344   11.49599403167469  -10.50309723779227
S         -12.91099516773131   10.66065653425639  -11.80354306599577
C         -12.19483228377359    9.17261774708497  -11.36737566639344
C         -11.34360751094881    9.29249596956775  -10.30756818432257
C         -11.26737353921320   10.61412551544935   -9.81007651191249
C         -10.33258017556403   10.98074059725026   -8.70079838242973
C          -9.24914013786322    9.91972598338357   -8.48409897469608
C          -8.15333118783750   10.04698021498380   -9.53597587452358
F          -8.58422243943772   10.10628248050234  -10.80141430958928
F          -7.43250337414957   11.16690690877314   -9.34038753934489
F          -7.27935234134171    9.02682327316903   -9.48153133688586
C          -9.86592808210464    8.52006581290335   -8.44413504895883
C         -10.52549726906943    8.15781871524240   -9.77194996672896
H           0.70244537942184    2.93487661684405    0.08603513915200
H           0.51220551060287   -2.06948063004640    0.23375733374715
H           5.14476843397074    0.55153650086533    0.05866060519957
H           3.48244929370070    2.56537769658565    0.02945442027299
H          -4.68627001542214   -0.15861755637267    0.86946095204061
H          -7.11312300580127    5.77604468771771   -2.06642628583640
H          -8.35047849474878    8.04694864482866    2.16353901951124
H          -7.26000068593158    5.84949796160637    2.20725978034491
H          -6.36140602385931    9.39852799229194   -2.41171215207650
H          -7.31818823910562    9.64563372401001   -3.86514715649308
H          -5.76255345804408    7.12047392576276   -3.13101318152714
H          -5.38784368832065    8.28173255272777   -4.39739165851650
H          -6.81043642679403    7.25800850841047   -4.54919673325589
H         -10.13306474759849    7.40209620088717   -2.62917893451790
H          -8.80474234879584    6.70127427221307   -3.54428875762825
H         -10.32898436523499    9.24873713521282   -4.25542466152938
H         -10.40921160441005    7.69094058483858   -5.06820008831942
H          -8.92836824738846    8.64077386008570   -5.15169579033310
H          -9.30770525698476   10.96938715765463   -3.30660737869172
H         -10.29373988305451   12.37138042665618    0.61776835599082
H          -9.41929119031795   10.30542729545797    1.60460671825830
H         -10.32752290278462   12.97236328005737   -3.12681089327730
H         -10.67788912940231   14.22858510611960   -0.36249046088800
H         -11.35944819431109   16.18494502948872   -1.45340937227040
H         -12.04587072664898   17.63147925844567   -3.35251899875256
H         -12.55648436954905   17.56334611267415   -5.87200725295040
H         -12.73285890424719   16.90582964956170   -8.23404976780474
H         -12.84671123990812   15.58657677228504  -10.43910012739548
H         -12.73012351201294   13.31313160928520  -11.33474366060613
H         -12.42975655463323    8.28542076409559  -11.92108168383251
H         -10.89448904421917   11.07378542763669   -7.76771178498769
H          -9.87206455688977   11.94970718148271   -8.90583774206917
H          -8.74350222977904   10.11905449166212   -7.53250432216429
H         -10.61311814054479    8.51728685109003   -7.64868024074109
H          -9.10305395157594    7.78002326123632   -8.19736969537349
H         -11.15578942938621    7.27556930226086   -9.64207031253994
H          -9.76131984067259    7.89864034451393  -10.51054703083752
