96
 SCF done       -180.865048802361          0.000348477034
C         -19.37287562083197  -11.13872683412688   -0.62034056291777
C         -18.06026347394238  -11.50830360891229   -0.80715909642928
C         -17.60235807783377  -12.84018408782266   -0.78968090815342
N         -17.15769753776249  -13.89980935569221   -0.79064813449310
C         -16.98364967327505  -10.63422053596023   -1.05397601724505
N         -16.04642113743073  -10.00177094862688   -1.26215618344496
C         -20.48013717380955  -12.06285778580943   -0.38587502166893
C         -21.67995366212036  -11.31603783486586   -0.28351867068259
C         -22.89989019034447  -11.90299222660957   -0.05469623458948
C         -22.94046878888979  -13.29448863383348    0.08310728812161
C         -21.73829424620255  -14.03137555969554   -0.02077065624007
C         -20.50283221370777  -13.43742280023206   -0.25503883095126
S         -22.02350144751882  -15.73155276633029    0.18657095236329
C         -23.71556214680056  -15.44548623952816    0.40706893125888
C         -24.05811528465284  -14.14133078480645    0.32948802027799
C         -21.37523032879833   -9.88081279963047   -0.44603800766570
O         -22.17814672073853   -8.96697421222462   -0.42277748789590
C         -19.91187993594510   -9.80255872048102   -0.63018214943297
C         -19.19815392588992   -8.62759133575061   -0.74444837809084
C         -19.75107398270300   -7.35008632246447   -0.73562157819956
C         -18.98384608192755   -6.20281772782082   -0.78662917228437
C         -19.45156350536417   -4.86864903462907   -0.75193770564813
C         -18.46251531225216   -3.92945516807279   -0.76890754199752
C         -17.16310334475721   -4.47753708843422   -0.82122558349416
S         -17.23683871089930   -6.22558088092664   -0.86627502085229
C         -15.94909239581897   -3.81508049671092   -0.80202106352604
C         -15.70919804877846   -2.42519734811613   -0.68550941503977
C         -14.39092973961697   -2.10083053295951   -0.62625909800809
C         -13.50334911472726   -3.21196451941512   -0.69926352409761
S         -14.44237022984326   -4.68927313860548   -0.88181971811941
C         -12.14781240870168   -3.14614794559279   -0.54508083087190
C         -11.19683616389080   -4.21355772404463   -0.56984597462982
C          -9.95815685586830   -4.01152103306478    0.09018482063328
C          -9.00457666608972   -4.98997589588567    0.20143964392100
C          -9.27008739718827   -6.21712577889296   -0.40773088654457
C         -10.48140135656617   -6.40223867946446   -1.12601003399984
C         -11.45261906973854   -5.43644661950375   -1.20857361857258
O         -10.45839630552301   -7.64933827631355   -1.65349938905966
C          -9.27665235681047   -8.17752551756284   -1.23063934932845
N          -8.55282299822025   -7.36149476586067   -0.49615355378068
C          -8.88561070394067   -9.48687178745705   -1.56019447641269
C          -7.74149241293367  -10.00999327992762   -1.01567128762268
C          -7.19706629107261  -11.30478645192495   -1.22025149766298
C          -6.07998711884297  -11.55257693957580   -0.48551633988893
C          -5.69816540630943  -10.46620349657941    0.33911273469537
S          -6.77476979856452   -9.09935940829665    0.11578997366982
C          -4.66325814940587  -10.43438568493079    1.25508428531111
C          -3.71038053538223  -11.44053767392567    1.53564371395340
C          -2.85380632870547  -11.11906412673262    2.54469619930821
C          -3.08913593080771   -9.84517111303766    3.11609967172164
S          -4.42469007037751   -9.05960307261889    2.30756146406723
C          -2.42807460886436   -9.29930203542369    4.19651282682880
C          -2.72903613078786   -8.04710146685745    4.72915249908330
C          -2.24043437836532   -7.47661794166295    5.88114741380473
C          -1.51348175419425   -8.02672771063872    6.99377727845869
C          -1.53041658557568   -9.33140395801008    7.43105773914899
C          -0.82029550105633   -9.79285068640903    8.55632144943647
N          -0.24586352875864  -10.23409648982618    9.44789354241085
C          -2.34429370478397  -10.34586910017857    6.89019182052076
N          -3.01781387070517  -11.20417839969256    6.53020632025494
C          -0.93052715999959   -6.90648028447596    7.73106733996751
C          -1.45590893837328   -5.69761853858301    7.20694815191924
C          -2.34241506638337   -6.00967304314605    6.06880904976306
O          -2.98958738717722   -5.23432838411516    5.39775773533393
C          -1.13317416315299   -4.46792953444354    7.72588516645494
C          -0.24312882778654   -4.42615622093894    8.80434579657492
C           0.28767202414701   -5.63623734232572    9.30844365663055
C          -0.04451697292297   -6.88305040481137    8.78903764858247
S           1.37191969687626   -5.34393822145556   10.63199510663351
C           1.10580608949377   -3.63903923112750   10.50540428586422
C           0.24884513541550   -3.29729351646905    9.51908447481937
H         -23.79576471668970  -11.30600161543120    0.01896527245522
H         -19.61567204341609  -14.04440571266667   -0.32338519545798
H         -24.35782517748960  -16.28614599925843    0.58445012225425
H         -25.06259268380417  -13.77489343695388    0.44169599006012
H         -18.11991060238824   -8.68881444069447   -0.83065884964651
H         -20.82400512374921   -7.24320729307219   -0.66805726910778
H         -20.50311625012740   -4.64747940531659   -0.70807685832741
H         -18.63393708195756   -2.86822394058893   -0.74269889467037
H         -16.51245521410302   -1.71279331842560   -0.63038195690185
H         -14.01615678469727   -1.09771607900277   -0.52289827886292
H         -11.75069480613278   -2.16573490774758   -0.31097684849769
H          -9.78291673647598   -3.05068379040117    0.55168217690083
H          -8.08013698031827   -4.83304353142831    0.73189972975182
H         -12.35171235854412   -5.61040763782752   -1.77442308962830
H          -9.50915384259122  -10.06603973822605   -2.22116146061810
H          -7.65772188651975  -12.00534301055693   -1.89393951699344
H          -5.54039502994512  -12.48253064775945   -0.49979644309383
H          -3.68352346359078  -12.36699715505828    0.99105042051779
H          -2.07276374684743  -11.76037576805117    2.91206973603711
H          -1.63612002491585   -9.89150798695060    4.63166935261574
H          -3.37726505001665   -7.40245956682590    4.14220945834416
H          -1.55617261712668   -3.56494275371455    7.31366864304192
H           0.38866195501224   -7.77750298892815    9.20515864232011
H           1.61655567549921   -2.98921944224982   11.18914686979843
H          -0.03597339915047   -2.28574272106908    9.29237424502524
