119
 SCF done       -229.608678396991          0.000421873260
C          -5.75274629866626   -2.54126504677177   -1.27514200729260
C          -4.46399647741908   -2.98974866767077   -1.38165175031559
C          -4.10911825575244   -4.34806023110864   -1.52385343605158
N          -3.76592768027862   -5.43652531852504   -1.64402842079161
C          -3.32176352065118   -2.16255028431691   -1.31619480174434
N          -2.35068831187264   -1.55538358498413   -1.24105213724539
C          -6.95056887796770   -3.36503512176676   -1.22267011495144
C          -8.06500116929100   -2.53390300770479   -0.93999924482668
C          -9.34318028083512   -3.02744757971251   -0.82648652147619
C          -9.53142901162036   -4.40207778352187   -0.99484895629435
C          -8.41273473189422   -5.22325777573645   -1.27996882246228
C          -7.12067868529696   -4.72581686139087   -1.39780273703410
S          -8.88156383873131   -6.88372051034236   -1.45919163336019
C         -10.53425843015521   -6.47538623477597   -1.15547403790413
C         -10.73517559108993   -5.15851862753779   -0.92968736457317
C          -7.62729074738081   -1.13285513187571   -0.83228087330817
O          -8.33910983088019   -0.16304260083692   -0.68330253218668
C          -6.15668994886345   -1.15749820147699   -1.08308485410901
C          -5.39860878983187   -0.05489406971064   -1.29867056524205
C          -5.79175743146104    1.27845782350224   -0.94556396900215
C          -5.50994031220253    2.36548055103649   -1.79352938570988
C          -5.97297013020568    3.69812763293594   -1.49611860315030
N          -5.67942751213574    4.70251965676697   -2.33985176480450
C          -5.01817564254924    4.44969094556435   -3.43863981799435
C          -4.59038966781264    3.11320507346221   -3.75091713081439
N          -4.83508581385098    2.12378032519941   -2.93407819611128
C          -3.88185528493761    2.86727284576556   -4.95498427390012
N          -3.32295674991875    2.71441877562760   -5.94266590412548
C          -4.73421570192796    5.52469880471857   -4.31841024198178
N          -4.52234243098676    6.38102897429571   -5.04889488967894
C          -6.70213853631164    3.99513994432741   -0.32231203816904
C          -6.87571335194418    2.92911834714521    0.57545405058537
C          -6.43361863392383    1.58657399209480    0.26524984457566
N          -6.68635725628041    0.73856710173687    1.26484310333743
S          -7.44412653280977    1.52372721569438    2.43139050964595
N          -7.47220876564290    2.97897751165600    1.77363343909823
C          -7.21508025819027    5.32987811207757   -0.07252553299842
C          -7.71058315198331    6.10269133051315   -1.13314718395158
C          -8.12197206355240    7.39059788403692   -0.89668991284897
C          -8.00816586210128    7.94646070385735    0.39191295462307
C          -7.55807910844957    7.17353569566708    1.45592386945716
C          -7.18247557033607    5.86798006599896    1.22133777345721
C          -8.38413208609880    9.33851919436297    0.32641535384088
C          -8.74000974264718    9.64312458577233   -1.00156535226991
C          -8.66910847671711    8.40633079493766   -1.87119981928412
C          -7.74523745838279    8.59526969773210   -3.08448920746680
C          -6.32592210184964    8.98132924687806   -2.68559297648575
C         -10.11786679829953    8.07260716445458   -2.30282117965324
C         -10.31010772397981    6.73111282780237   -2.99729639253949
C          -9.13057862220239   10.91286500234880   -1.34039245089399
C          -9.15261699991819   11.92490129058112   -0.36149206013840
C          -8.78293488588428   11.60387073116646    0.95705961332841
C          -8.40754398955836   10.32559371455582    1.30601303701839
C          -9.58113012573419   13.23673759246638   -0.75327492170648
C          -9.50872244281627   14.36041865870074    0.00358839024918
C          -9.97997566200023   15.64170633528850   -0.38913212503523
C          -9.72514251199137   16.76227299789635    0.44936480298655
C         -10.13698956649652   18.09403153105293    0.10055711852852
N          -9.87287010395436   19.11754565997188    0.93324147330849
C          -9.22152284257891   18.88625098929845    2.04200537532945
C          -8.79113367428958   17.55983457043281    2.38091215489053
N          -9.06225405686594   16.54747689676950    1.59549176971532
C          -8.08816369059288   17.32505195562790    3.58900169760850
N          -7.52359114092036   17.16258894737755    4.57234104343537
C          -8.95582051190994   19.95868131727872    2.93250576235743
N          -8.71826421489065   20.79242184405343    3.68050283974119
C         -10.78956044243410   18.38321334124897   -1.11973440805501
C         -11.10484988560371   17.26688895144142   -1.92141897583764
C         -10.70861578076055   15.92236706208302   -1.56646005746656
N         -11.13170322669321   15.03700387840282   -2.47247787489697
S         -11.93932876664207   15.79710451288853   -3.62617274661799
N         -11.80757234061194   17.29001907527504   -3.05679601458792
C         -11.13763610737372   19.73003736398730   -1.42662409655358
C         -11.39157402689853   20.31584877325942   -2.62524864009383
C         -11.17617720621313   19.90035509379671   -3.99346523044765
C         -10.19346294457854   19.05520337673092   -4.43995456318514
C         -10.01071862643548   18.69879272932134   -5.79051005435803
N          -9.83833140026189   18.34207951471893   -6.86814102951985
C          -9.22554736800642   18.47045302851393   -3.60132749654336
N          -8.41200177338601   17.97480376780508   -2.95972407620264
C         -12.04001817043525   20.71622274015287   -4.83653466462852
C         -12.59385206016574   21.75881554284965   -4.04844420644019
C         -12.14205853728208   21.60749970387579   -2.65325646460591
O         -12.36610750975376   22.33387009915912   -1.71411208174337
C         -13.42636304092005   22.71672017606119   -4.57508126480217
C         -13.73531253118938   22.63710253028228   -5.93658836046830
C         -13.18862588541777   21.58478868998013   -6.71062571518214
C         -12.33905903432786   20.62012840754722   -6.18158196180651
S         -13.71658318156560   21.67936882632752   -8.36081574310716
C         -14.64000099175079   23.09943263793318   -8.01017618685839
C         -14.56388953227273   23.48984672535801   -6.71928042889937
H         -10.17221040471227   -2.37039624716071   -0.61343572135744
H          -6.30214157845151   -5.38837894106986   -1.62509549853333
H         -11.26602338279415   -7.25967267583362   -1.16603809374676
H         -11.69613396227580   -4.72251066097790   -0.72477627551320
H          -4.44745394396454   -0.13749351023734   -1.80904042830921
H          -7.76631966742807    5.67707979641037   -2.12097498096364
H          -7.48520819851931    7.59215308695352    2.44813001473303
H          -6.81381555865835    5.25814995949556    2.03040548010092
H          -8.16626749610154    9.36850824809793   -3.73001543230562
H          -7.70699379733034    7.66666915440621   -3.65438189609592
H          -6.31809569994816    9.92186775385331   -2.13866432815320
H          -5.70885502705681    9.09067590149999   -3.57369196362361
H          -5.88225563577758    8.21197934716311   -2.05763777946756
H         -10.45530741779994    8.87028854520096   -2.96799208410817
H         -10.74943265309216    8.09752978097595   -1.41054423657244
H          -9.68290646611687    6.64733073762002   -3.88070267307198
H         -11.34722413621866    6.63614068722163   -3.31196131680377
H         -10.08670747281952    5.90836837772452   -2.32351526956433
H          -9.41156533855117   11.15698374296272   -2.35447089865042
H          -8.80768548314314   12.37001811206393    1.71561811906907
H          -8.13473741644876   10.09425134413277    2.32448824083381
H          -9.99204003199424   13.32278808107012   -1.75028013336229
H          -9.04341358123195   14.34241537091676    0.97870993118626
H         -11.25925257035395   20.37564331436522   -0.56169557851996
H         -13.82647348615011   23.50401408069794   -3.95524179582613
H         -11.95011284622368   19.83342293590873   -6.80688451835688
H         -15.19198760166505   23.56066319357485   -8.80592326554109
H         -15.07089309475376   24.34909771338675   -6.31913511002738
