93
 SCF done       -190.642210935003          0.000315185510
C          -5.70089873005292   -2.16374641803072   -0.97419866959639
C          -4.47773378054915   -2.63509759043009   -0.57899678935644
C          -4.14080667229531   -4.00383004130923   -0.51397453339558
N          -3.81081826309283   -5.10099173650771   -0.44608309969426
C          -3.40315484209111   -1.82688016257847   -0.14851830814272
N          -2.49378917579957   -1.24172763018832    0.23657305829192
C          -6.86026959294248   -2.97083227223758   -1.32377076103229
C          -7.96791726003583   -2.11156464593581   -1.54023025407529
C          -9.21249172509210   -2.58432324473658   -1.88279059470206
C          -9.37471985298340   -3.96644018378289   -2.01366369377881
C          -8.26147335518808   -4.81591155497561   -1.80040848594738
C          -7.00211231648662   -4.33963275150853   -1.45721169653308
S          -8.68941710471942   -6.48175044132040   -2.02776316461384
C         -10.32004196639581   -6.03805462811933   -2.39513094040635
C         -10.54245626639891   -4.70608111619504   -2.35279271902428
C          -7.55001073030078   -0.70976328781901   -1.37460196288490
O          -8.22141771734283    0.27451151724991   -1.59667839865898
C          -6.10111858158038   -0.76678560116178   -1.02361991028861
C          -5.28163505773498    0.31223054807822   -0.96481341877292
C          -5.73094646438624    1.66882373278421   -0.85956289235981
C          -5.06259449941490    2.70052271009603   -1.55324188972755
C          -5.49239513480385    4.07610260748271   -1.48651301539235
N          -4.78255552846889    5.02628979921479   -2.11645420401265
C          -3.73475646967409    4.67825744450473   -2.82365833325975
C          -3.34924640887531    3.30268943217884   -2.94432408205303
N          -4.00742094674276    2.36309154768145   -2.31523957002520
C          -2.24108964109403    2.95172647341968   -3.75737352223857
N          -1.34704081945379    2.71039104167535   -4.43094075222691
C          -2.98897680279521    5.68629411382085   -3.48451157175725
N          -2.37785558388270    6.48104843561688   -4.03849954360270
C          -6.60396099224810    4.45641359139962   -0.70404469744664
C          -7.24250448519988    3.43184297835866    0.01794391082211
C          -6.79785782793789    2.05916131485606   -0.03353801592163
N          -7.50240964053703    1.28414503547192    0.79493995352854
S          -8.63611690727748    2.17267338967922    1.48966068131909
N          -8.30706176225011    3.57725613436601    0.80999980692147
C          -7.02855239223352    5.80867598192828   -0.47996501819041
N          -7.17469602465068    6.79951478582962   -1.40549739782045
C          -7.07417540187254    6.67773274742716   -2.83404620929139
C          -7.61036118736916    8.00455907186558   -0.81227936115488
O          -7.85688174154148    9.00936071828271   -1.44616210529034
C          -7.68820451530070    7.70104963378192    0.59842058989101
C          -7.35394737321677    6.33638694037823    0.76733183440987
C          -7.36438211589371    6.03822442439844    2.18632427697059
O          -7.10741967441697    5.03931778057521    2.82234361489132
N          -7.75291856055297    7.25533655776507    2.78173575492333
C          -7.89316439994419    7.38314736336235    4.20687008686051
C          -7.93924518549453    8.25328770554562    1.85661545827694
C          -8.31104391417187    9.57268109004657    2.20599174831180
C          -8.46806578230030   10.55443769081176    1.27601232071045
C          -8.83293177863994   11.89313243022401    1.56120162743708
C          -9.11308728936827   12.51127078129888    2.77319106605984
F          -9.07656727271423   11.88664216805592    3.95865406800912
C          -9.44131867956085   13.86069801268483    2.66162557754008
F          -9.70301040755824   14.58995081415629    3.75258408983053
C          -9.42814556236397   14.34088224337590    1.35489643198463
S          -8.96663655387215   13.04832006826308    0.27316816796037
C          -9.68200182948969   15.61861201469033    0.77760525830380
N         -10.20239056802507   16.74804920733936    1.36111753475307
C         -10.70837776951119   16.93205632497419    2.69452848558826
C         -10.28311943137190   17.82633044861301    0.44066739259592
O         -10.72405741692870   18.91451481342091    0.73558173392427
C          -9.75976113801300   17.28478001833101   -0.78816426410977
C          -9.41774615117732   15.93003602458759   -0.55433128581683
C          -8.90126402896950   15.39168957721135   -1.78438535653319
O          -8.50149950210787   14.28217667549456   -2.08057614766963
N          -8.95170678783150   16.47056474242688   -2.69271031175755
C          -8.50217223165849   16.28415923682383   -4.04478121746129
C          -9.46685999024545   17.60151155083121   -2.10823957638198
C          -9.68942534570309   18.89765294855746   -2.68285465998075
C          -9.46082213689598   19.32227609420221   -3.92685755134864
H         -10.03600248006678   -1.90583560209940   -2.04338954651435
H          -6.18348316909429   -5.02498840019353   -1.31348757300378
H         -11.02287324020239   -6.81512442478527   -2.62512271937230
H         -11.49388553377121   -4.24788215791460   -2.55372816172413
H          -4.20978991631441    0.18470166671136   -1.04656278274868
H          -7.57907289370705    5.77332731977064   -3.17562085597306
H          -6.03045974824056    6.65115015735106   -3.15017498116340
H          -7.55516946868683    7.55695379396233   -3.26342155673982
H          -7.65109651731753    6.41072873521652    4.63590123243610
H          -8.91609833242336    7.65093323295359    4.47759868504986
H          -7.20456330907194    8.13126952319899    4.60385995991347
H          -8.46529462877034    9.77966452409732    3.25379625705035
H          -8.30668733693024   10.32798069009168    0.22967271311890
H          -9.90558031343602   16.93084666437990    3.43201064563366
H         -11.43818596927725   16.16363561434179    2.94793675005444
H         -11.19295398140406   17.90923514078604    2.70554773238486
H          -8.16529345864867   15.24861442498611   -4.11833276814010
H          -7.66712115052868   16.94770339357661   -4.27533808964856
H          -9.31490558162675   16.44445701833495   -4.75519340448436
H         -10.10486239169297   19.58825091613007   -1.95919832355231
H          -9.05409054725566   18.70719416020977   -4.70784836420662
H          -9.68821698449026   20.33880638015138   -4.19865942477091
