119
 SCF done       -206.456092326380          0.000393127182
C          -3.38599343321696   -1.36353028268728   -1.85418657143334
C          -3.59051685425881   -2.49612861653639   -1.11080370565742
C          -3.08705891672509   -3.76796343745376   -1.45347342440716
N          -2.69812899308819   -4.82360588842296   -1.68223447422683
C          -4.37263048307922   -2.55198512426278    0.06258799941362
N          -5.02282428398886   -2.68282658733799    0.99967782626628
C          -2.69813530925643   -1.28908549650433   -3.13516304169806
C          -2.85228394112465    0.01959311593110   -3.65842314349314
C          -2.31733432270878    0.39866209187381   -4.86613134740718
C          -1.60292365749065   -0.55716779106321   -5.59452143329487
C          -1.45147966620135   -1.85995656518533   -5.06171337477719
C          -1.98804027345347   -2.24373226982999   -3.83851530956388
S          -0.52568778133317   -2.87052106815802   -6.12642074676679
C          -0.35551940244168   -1.56929152157142   -7.25321769863479
C          -0.95973667475984   -0.42762954178940   -6.85780997318163
C          -3.61902690802026    0.84741922829828   -2.70994488070404
O          -3.84177447156807    2.03515417748005   -2.81019785240486
C          -3.92536131413776   -0.04884825814405   -1.56162989050862
C          -4.43886673940312    0.37000158550643   -0.37451010823683
C          -5.13919221440214    1.60019060291147   -0.18397242968621
C          -5.01670518004893    2.32675458194730    1.01732942932838
C          -5.68503723025536    3.58913255370443    1.22024017306182
N          -5.41413244954591    4.30404490000970    2.32451970406814
C          -4.60507922431550    3.81414655142973    3.23002258186278
C          -4.01921386710112    2.51412457310945    3.06834787279787
N          -4.21353513577497    1.82562984142640    1.97358095599452
C          -3.20484888243503    1.97690658715292    4.09713261390781
N          -2.55069380486166    1.58546137353716    4.95198941140010
C          -4.31318116736608    4.58769170510915    4.38076455869669
N          -4.06463491049322    5.18570836433947    5.32585407810119
C          -6.56589660546720    4.13395279896320    0.25508650649292
C          -6.73111107628554    3.37131011296798   -0.91803989546351
C          -6.03935591953661    2.12012980959660   -1.13163671459082
N          -6.41829187415555    1.52753379698552   -2.26433217246064
S          -7.48897018425674    2.45850370760236   -3.00371615752995
N          -7.56327514256079    3.64391402450813   -1.93094824720410
C          -7.26810650260754    5.38606988171652    0.44863688867805
C          -7.55110498043546    6.20103366578710   -0.66057154142487
C          -8.23466425079337    7.37466695791533   -0.47959614161453
C          -8.66165556830840    7.76875501350023    0.80186073594651
C          -8.39468828275239    6.96569460279486    1.90430401837050
C          -7.70363961598547    5.78764692998646    1.72130880495262
C          -9.33504495329427    9.03843247775583    0.68937221061652
C          -9.33404503097193    9.43415706294542   -0.66370589629008
C          -8.68105219904851    8.37539287229471   -1.52385469642206
C          -7.50135578098649    8.93109070195590   -2.33484708475259
C          -6.42009263369672    9.53424396135804   -1.44525798492349
C          -9.70549290486756    7.64692109937552   -2.42623750901598
C         -10.42055858710611    8.51053686189021   -3.45695044689000
C          -9.85694791221362   10.64728357953575   -1.03322142671820
C         -10.43697200455663   11.48488932959320   -0.06346505697947
C         -10.44663810680644   11.06037190154599    1.27678709144654
C          -9.89726437551912    9.85765079266239    1.66093193491493
C         -11.03708344836600   12.75248821733598   -0.37794082483830
C         -11.10588015596856   13.32306765237558   -1.60543626094622
C         -11.71901696125645   14.55203077303310   -1.94936610511772
S         -11.27327973937092   15.25592006258907   -3.47480084069403
C         -12.26124784784261   16.65982131800521   -3.24522960193539
C         -12.94478915409707   16.57276359482178   -2.02074662554007
C         -12.65598154337389   15.37238017472238   -1.29368529118010
C         -13.35103358873042   15.11862140373230   -0.10003861699214
C         -14.24056869311550   16.05384693091173    0.38293727146062
C         -14.93772884840888   15.79791703460575    1.58459612022287
N         -15.50266765668207   15.59217317912240    2.56119723854352
C         -14.47833151969105   17.26793422268630   -0.30748319764029
C         -13.85249793741380   17.51311978981609   -1.49323684126667
C         -12.33439579301311   17.69477144810112   -4.20145878075446
C         -11.65819498750662   17.70626514507788   -5.37907872960087
C         -11.73888622541518   18.72524218317324   -6.36635681610011
C         -12.54189016488901   19.91526756860398   -6.31816231408841
C         -12.34820084018123   20.63546223870986   -7.48180328779159
C         -12.90072623181028   21.85609040931836   -7.92677361831189
C         -12.51184133206157   22.31819801597500   -9.15482019697959
C         -12.87372806920160   23.48911754778109   -9.89378469483565
C         -12.19484260129204   23.48622044443254  -11.09766736156592
C         -11.38383014553287   22.30746202640225  -11.14440029872588
C         -11.56406166549229   21.58628750108871   -9.97344880590329
C         -11.01029884426022   20.37144981882731   -9.53145234995653
C         -11.40053840299323   19.90252970617109   -8.29980714142951
C         -11.04897596574831   18.73065820117830   -7.57421851295135
C         -12.30251842620817   24.50357980380186  -12.11560962548969
C         -11.65666919987052   24.50711684884146  -13.27850510184095
H          -2.44872408295036    1.40309479809488   -5.23797381657583
H          -1.83874288169273   -3.24493158817343   -3.46975104508208
H           0.19651047016141   -1.74288579306979   -8.15644936680787
H          -0.95790817058104    0.48342336743647   -7.42851030239936
H          -4.29151925701377   -0.22286537323333    0.51939143558580
H          -7.20606460678228    5.90404316470118   -1.63743813558007
H          -8.73162886532468    7.25137186116932    2.88916087129905
H          -7.51768535016603    5.14661939099161    2.56738120285059
H          -7.86599250653130    9.69786608872183   -3.01970524362756
H          -7.07364724369876    8.12261195757998   -2.93102874358869
H          -6.82456225882658   10.34903156114565   -0.84834093127085
H          -5.60770056375673    9.92437534602221   -2.05413467925109
H          -6.01411556789558    8.78475173666709   -0.76973996717775
H         -10.45429038911780    7.18634460732287   -1.77655474272427
H          -9.17679615267135    6.84038145492971   -2.93849661681145
H         -11.04358148149663    9.25809102840578   -2.97342398111775
H         -11.06459642609172    7.88053421301796   -4.06682726993901
H          -9.71538180527311    9.00805342209561   -4.11761061298216
H          -9.81381787621074   10.96804049498655   -2.06145031613537
H         -10.89177807123830   11.70415298181948    2.02210482835491
H          -9.90020961227756    9.55847290871508    2.69811147477018
H         -11.44358101104761   13.28139071546637    0.47138325664391
H         -10.60984051642620   12.83753521458537   -2.43625377484308
H         -13.22266551232909   14.18850377895315    0.42849401156523
H         -15.17473620997262   17.97833661825300    0.11152292067857
H         -14.05473291845747   18.42437404428680   -2.03413678215973
H         -12.98765168639971   18.51915712936169   -3.95554194842478
H         -11.00305416666342   16.87393985442401   -5.60742474030227
H         -13.19020921711380   20.19704985080667   -5.50859957343065
H         -13.60671658132665   22.39500174699678   -7.31039677373068
H         -13.56387787957314   24.24116151547452   -9.55712138147247
H         -10.73998915898675   22.02899790330621  -11.95848514938474
H         -10.30492584760165   19.83166033586832  -10.14755335379144
H         -10.36330186667255   17.97456158999396   -7.91006874674944
H         -12.97710757212287   25.31624981453901  -11.87607554117429
H         -10.97694524986292   23.72204507059642  -13.56198678002835
H         -11.78784393106042   25.30177259901607  -13.99212349164027
