119
 SCF done       -202.543855859362          0.000585727345
C          -2.03540013020414   -0.55519232759903   -0.19195855850364
C          -2.45764886474372   -1.79778104696659   -0.58833132103918
C          -1.59936497205812   -2.89864898949098   -0.78722841578336
N          -0.95208169634930   -3.83062771565074   -0.96276042526241
C          -3.79283847465659   -2.13843444979171   -0.89209946094806
N          -4.84459313153121   -2.49008793169610   -1.19013030143212
C          -0.65105000921721   -0.14551280885701    0.00320772976778
C          -0.62309565140201    1.24365573229304    0.28320106100950
C           0.54721176708307    1.92968283578479    0.50080612062833
C           1.74722397427152    1.21561503788737    0.42998397841300
C           1.70881819875580   -0.17197912726774    0.15428035524579
C           0.52526637281442   -0.86858422459199   -0.05884967775821
S           3.30629018964010   -0.85039585113681    0.12093156897721
C           3.99725909678436    0.69767325292271    0.46500546028742
C           3.08151102107437    1.68122241773753    0.60169782656571
C          -1.99997652201503    1.76997607438930    0.31691116157969
O          -2.33218469703755    2.88665487849095    0.65476806667781
C          -2.87577572048676    0.61116013894925   -0.00104256461008
C          -4.23590682969523    0.62483733064200    0.06378197152381
C          -5.04803220171371    1.79567746869082    0.02591908970571
C          -6.27347161239739    1.84522351824980    0.72263743930849
C          -7.09016766213024    3.03359329116080    0.74601758878453
N          -8.27333384631780    3.00342184314897    1.37955801177371
C          -8.63333815365987    1.92280539645579    2.02781263230780
C          -7.77580241062931    0.77541607482823    2.07816948237865
N          -6.64327150669623    0.75777799452906    1.42216277297804
C          -8.16309074701165   -0.35930782825260    2.83446491325931
N          -8.51122749689397   -1.24827236959538    3.46766342111166
C          -9.89166512820593    1.90114092277347    2.67828273417769
N         -10.89706949399751    1.86040366333315    3.22646005004957
C          -6.70690599483459    4.22441960137157    0.07952633285823
C          -5.54516198442935    4.12741488524921   -0.71416222635714
C          -4.73223864468740    2.93107918686492   -0.74473570705726
N          -3.71160452637935    3.04282229888082   -1.59323228256064
S          -3.72271918303165    4.51110458534730   -2.23047491948304
N          -5.03564118926751    5.07699590202027   -1.50720830178630
C          -7.46679362328639    5.45071288003388    0.19823962852564
C          -7.51015478532391    6.35531276638833   -0.87794059250894
C          -8.24562073717096    7.50657676973349   -0.76862312380174
C          -8.92110779210620    7.81273067083456    0.43004664028174
C          -8.87185128417537    6.93382663820640    1.50568181048078
C          -8.15487745268576    5.76441754740219    1.38161545311334
C          -9.52291164699837    9.11485400826312    0.30182543164826
C          -9.20441157437543    9.63326674539655   -0.96883273776725
C          -8.44750178946769    8.60655257256113   -1.78552266457391
C          -7.11796802601274    9.14612442522027   -2.33039844003911
C          -6.22216338666380    9.69827830994907   -1.22763027229676
C          -9.39419866238388    8.16045979973292   -2.92606362227507
C          -8.91544798841271    6.97882462321893   -3.75886281788089
C          -9.60844607511715   10.89044516930050   -1.33488996508430
C         -10.36591840690219   11.66677039414002   -0.43779427872268
C         -10.70966408645727   11.11506386978965    0.81038363452756
C         -10.28809509418662    9.86154049343171    1.19133415062724
C         -10.80898158067951   12.99319276761248   -0.74954439559143
C         -10.36379801764945   13.77598835460819   -1.76887938267315
C         -10.84582669979488   15.07464221505047   -2.01098036889984
C         -10.35550738668586   15.91997750367854   -2.97212611376541
C         -10.81176490934752   17.23052224648650   -3.26584139747425
C         -10.12363232868642   17.85670321296065   -4.25654912099191
C          -9.07175324976050   17.08302266619840   -4.80481792667322
S          -9.00746984773107   15.51421355497192   -4.02509773573630
C          -8.17849106350086   17.45061806152682   -5.78476200046964
C          -8.12699991242043   18.68668785303708   -6.48555478822410
C          -7.11755288343429   18.77676807559078   -7.38065843021649
C          -6.28303247441767   17.61478403905413   -7.45216210438104
S          -6.89038012869977   16.39469400961229   -6.31933736827380
C          -5.18965463196571   17.44235574373661   -8.21659950211691
C          -4.36050090364537   16.20363865207948   -8.25600668089758
C          -4.47892785088852   15.56613259346987   -9.61330348566810
C          -3.78720608786805   15.91032958831460  -10.69613899436387
O          -3.97041588490871   15.29239286908024  -11.91686241574116
C          -3.82023054951682   13.88816605899011  -11.93526951944822
C          -2.51423761569890   13.42225308107072  -11.28455962560874
C          -1.26376067232786   14.13309979002931  -11.83063882046673
O          -0.92428528242149   15.33594762700844  -11.17975876307533
C          -1.54276327610877   16.52138376099126  -11.63375465773760
C          -2.72265599908865   16.97173426146595  -10.75606862909068
H           0.53634767151474    2.98736224332560    0.71440673859041
H           0.54713387332489   -1.92698719175138   -0.25838590638180
H           5.06410464062317    0.77575843510836    0.54535619405451
H           3.32585431176098    2.70568826725369    0.81742468335966
H          -4.77751913212895   -0.30447627449071    0.18734503412628
H          -6.96279730751962    6.12524489276002   -1.77619436940209
H          -9.37066723021247    7.17081704355157    2.43318755354436
H          -8.08718756185041    5.09595035729631    2.22423350535573
H          -7.32777280739018    9.93228372002746   -3.05897277834745
H          -6.59010145670528    8.34166925779463   -2.84322367838311
H          -6.71589131464791   10.51109959408082   -0.69916225918400
H          -5.29536622473902   10.07674178029745   -1.65248341102942
H          -5.97817967010864    8.91867084965635   -0.50964566183440
H          -9.55201334304179    9.02030681477740   -3.58126349256864
H         -10.35920871657629    7.90516122214438   -2.48007201962974
H          -7.95087841718702    7.17991731196358   -4.21705679405947
H          -9.63291646975208    6.78654827955119   -4.55391609273893
H          -8.83823813832444    6.08193969028275   -3.15072809684396
H          -9.36334062585017   11.28254011725740   -2.30981122003597
H         -11.30523791113563   11.70758973147488    1.49023581037121
H         -10.54851209512462    9.46413890252530    2.16078139675049
H         -11.54820459836423   13.41274775355884   -0.07747525389127
H          -9.58395916512046   13.42149992975193   -2.42969357419591
H         -11.65691665714482   15.44261134781249   -1.39580458589629
H         -11.63688322866191   17.66495940171081   -2.72924427081176
H         -10.33502659507556   18.85216218620024   -4.60361791509207
H          -8.84314762512673   19.46711704895072   -6.29960870984833
H          -6.92030970027782   19.63380300766818   -7.99976091326456
H          -4.89809289441539   18.23822448903368   -8.88734445556135
H          -4.70506745451155   15.50508308103608   -7.49167479904831
H          -3.31744599411125   16.45921291434516   -8.04901655190673
H          -5.23254977412576   14.79615715527765   -9.69507930821534
H          -3.83076934814095   13.62743195467795  -12.99732350105830
H          -4.67046939674131   13.39177532440679  -11.44758271887711
H          -2.41694884274688   12.35015767347056  -11.45845937983609
H          -2.55883526441854   13.59313065387581  -10.20728973172168
H          -1.37435255671056   14.30023831666988  -12.91134886298979
H          -0.39716855432577   13.48550864941886  -11.66549005359457
H          -1.87945056779660   16.40523170186563  -12.67028262411419
H          -0.76962086879731   17.29761014286575  -11.60114502664709
H          -3.13256765546473   17.88633367150491  -11.19104425483204
H          -2.36215582018147   17.19539262140626   -9.75283025643088
