137
 SCF done       -236.228817469016          0.000853218031
C          -2.79017162210695   -0.59903571875005   -1.20379272288268
C          -3.36022212256948   -1.82006956047420   -1.45691483222904
C          -2.62690085298378   -2.99976926739204   -1.69554619287418
N          -2.07923286602219   -3.98983240615332   -1.89171359815664
C          -4.74860651381269   -2.04524280839091   -1.56748175760483
N          -5.85872737929926   -2.30084692945255   -1.71230796674866
C          -1.36570205140019   -0.29599476623692   -1.22307010777620
C          -1.19972864349249    1.10483413233045   -1.08535771179681
C           0.03686535613559    1.70308510913538   -1.07237046679640
C           1.16191553186081    0.88342627416681   -1.20668518259342
C           0.98558341718187   -0.51425512640258   -1.33901528406441
C          -0.26470199108949   -1.12147654490222   -1.34876891490771
S           2.51189594569408   -1.32974957086359   -1.47734375753228
C           3.35482355573683    0.17673256358866   -1.36402556980139
C           2.53896367400896    1.24447013008278   -1.22712418114368
C          -2.51854171869132    1.74890197074774   -0.93412213086009
O          -2.71822470526325    2.92211249082542   -0.69711265824059
C          -3.50674349751547    0.64089954419065   -0.98486780037282
C          -4.82328947722055    0.76167175044823   -0.65393473714175
C          -5.54827379266271    1.98697608579992   -0.62258441044250
C          -6.56674670155132    2.19820628602365    0.33053301830724
C          -7.24495749386474    3.46548047500294    0.44933825455968
N          -8.22687936249229    3.60251983204777    1.35437113407385
C          -8.50979959700785    2.60433961003225    2.15707794963637
C          -7.78083642617672    1.37396878823885    2.08677712924723
N          -6.84957804227472    1.19724659742021    1.18177028584618
C          -8.07607280534253    0.32767298246239    2.99571554931795
N          -8.33882585005676   -0.48729574247312    3.75691064691286
C          -9.55658233882177    2.75764923284786    3.09884439096437
N         -10.38842572259743    2.85709942235737    3.88070949956638
C          -6.93654591921671    4.56599806469463   -0.38812508240162
C          -6.02954800333722    4.29797175944423   -1.43583702235513
C          -5.34188478332680    3.02970006414111   -1.54669172080932
N          -4.55535583337069    2.97722779997808   -2.61874727972643
S          -4.61271244564016    4.38754118646485   -3.37546599072792
N          -5.66644065516114    5.13156277592377   -2.41647861538982
C          -7.49887340355310    5.88180579635387   -0.17307745950459
C          -7.71350173720462    6.74011428704887   -1.26570625912737
C          -8.20823288966629    7.99992645121845   -1.05362833654461
C          -8.55443061818414    8.42737907276051    0.24492994180091
C          -8.33910675169713    7.58920223628880    1.33314677382206
C          -7.80508405146718    6.33749303825146    1.11994399575693
C          -9.13554656297779    9.74274826984862    0.15891247840353
C          -9.14356539048119   10.13763173066470   -1.19365910025292
C          -8.48472630328107    9.08892494116343   -2.06221110983740
C          -7.17148106882590    9.70114003107071   -2.60601908538520
C          -6.23300476193817    8.72626731503398   -3.30461576873765
C          -9.39664692621692    8.62345053828323   -3.20463320183588
C         -10.74131792834500    8.10588168345643   -2.70952531205238
C          -9.67875555163296   11.34022118467453   -1.56410079247339
C         -10.24234031932629   12.19274494226116   -0.59202155376136
C         -10.21668555450417   11.78831795717549    0.75490902989563
C          -9.67056139479323   10.58167778074140    1.13288015987734
C         -10.83902410296145   13.40346057533859   -1.05983783587823
C         -11.43535492998167   14.39891357725519   -0.34553498600016
C         -12.07288030766290   15.52481603120197   -0.90730831622606
C         -12.43670292708324   15.73326902174007   -2.21978382100075
C         -13.04305001409401   16.90889177909166   -2.73468433159200
C         -13.33487385489655   16.86663122013087   -4.06646061327290
C         -12.99239143716248   15.64563028865010   -4.68385369277874
S         -12.27875898419150   14.56102024060088   -3.51396997810316
C         -13.09977388995964   15.22988463122352   -5.99732548063353
C         -13.52872147697964   15.95266941269816   -7.13962765549992
C         -13.42970692387271   15.24663044520662   -8.29377642332049
C         -12.93037906698421   13.91772606140526   -8.12352794536042
S         -12.63466869840735   13.60504636102532   -6.42676985351707
C         -12.63568908441257   13.04402971979140   -9.12118986188967
N         -12.17734455295940   11.75740198185130   -8.92868514613429
C         -12.55500422519929   10.93614417556657   -7.88398354324341
O         -13.41444985865307   11.18646899275302   -7.07373754108844
C         -11.72759392273717    9.65971649263122   -7.95913554831723
C         -10.94786008630147    9.84988638791371   -9.22041620094577
C         -11.24616610876328   11.11101697658368   -9.74662611850409
C         -10.63353629205781   11.57393133126842  -10.89242798780340
C          -9.70759830437754   10.75113389020025  -11.53265809206731
C          -9.41457188671611    9.50074835681803  -11.00426814078465
C         -10.02507370393198    9.04129812394564   -9.84397575660535
C          -9.04478382297803   11.23089431603934  -12.78758639882842
C         -10.83556574663994    9.59564181086511   -6.70139842094629
C          -9.79011665293279   10.70745276739855   -6.77593925848855
O         -10.02568580266066   11.88748721156205   -6.89040896049266
N          -8.54358020356202   10.12715450157832   -6.71744108837105
C          -8.65374565736861    8.73501585671374   -6.61145164472216
C         -10.00179956447472    8.36494570966118   -6.58712612023897
C         -10.35923141261952    7.04218437426070   -6.45527180968833
C          -9.35716469675229    6.08884319030158   -6.33567263346210
C          -8.01500604477536    6.44557494151946   -6.36655279630356
C          -6.94285321407424    5.41398013747367   -6.19313684601419
C          -7.65626191314447    7.78420754530248   -6.52084406983549
C          -7.32360571666609   10.80253801054232   -6.72396211472088
C          -7.15615970023705   12.10706111990311   -6.87520264575080
H           0.13272510493884    2.77250252448573   -0.96431006278374
H          -0.34874654343319   -2.19148245394613   -1.44223050216213
H           4.42668203612201    0.16807310378581   -1.40561790384606
H           2.88432649645182    2.25883225154248   -1.13972963491021
H          -5.37778327143029   -0.11148767609944   -0.33307788114939
H          -7.51237715540736    6.38179446510941   -2.26090626426773
H          -8.57826984415131    7.91483635812761    2.33421298639216
H          -7.60226688680798    5.70005919464137    1.96494957841863
H          -6.64060479678713   10.15800637687529   -1.76671960565859
H          -7.44148201373640   10.50193711385203   -3.29943232177707
H          -5.86195828562309    7.97533093632904   -2.61312098537736
H          -5.38039411096991    9.27301897793985   -3.70293064707962
H          -6.73287996905299    8.22418534200756   -4.12792446513734
H          -8.89699900126644    7.83179181636517   -3.76375071865676
H          -9.55831233673606    9.46457748793986   -3.88239169258976
H         -10.60142329689483    7.27003287907912   -2.02791224437988
H         -11.34178852226345    7.76632228404050   -3.55051711594262
H         -11.28805343957238    8.88725087476328   -2.18653854255459
H          -9.69470381862591   11.64540218561311   -2.60085780160867
H         -10.64149110269231   12.43502342387506    1.50721356571168
H          -9.66466593294648   10.28603142597240    2.17142600138090
H         -10.77990132949812   13.52214228297892   -2.13160971227340
H         -11.41527696682905   14.36375609213493    0.73564836980358
H         -12.33989622533318   16.32093969060167   -0.22314814615347
H         -13.23895949528744   17.75638647680589   -2.10101096841518
H         -13.79480702169073   17.67153580431779   -4.61181319684662
H         -13.88001639672103   16.96714394489299   -7.07359853919466
H         -13.68875499525981   15.62354345972493   -9.26750444216455
H         -12.73486318004911   13.35273902978414  -10.15334918888969
H         -12.37994796640631    8.78279867972300   -7.97636386257080
H         -10.84890455533873   12.55303582675428  -11.29145285467926
H          -8.69259014986402    8.87233105222674  -11.50367864078637
H          -9.77967805221775    8.07037639085615   -9.44054491667785
H          -9.77689356547340   11.31466944332406  -13.59029473315450
H          -8.26488314078049   10.54400733374705  -13.10416302069701
H          -8.60499658326111   12.21482549655129  -12.63481644335416
H         -11.48044958185595    9.75086487347885   -5.82909354910566
H         -11.39821097144118    6.75020907380486   -6.43565976788818
H          -9.62504245871326    5.05017594783828   -6.21564667832254
H          -7.32546836225780    4.41609599527869   -6.38852106622451
H          -6.56746745998264    5.44227728317539   -5.16869825235993
H          -6.10423785425166    5.60819264995982   -6.85910638871950
H          -6.61029598521735    8.04619013884101   -6.56364736999066
H          -6.47942752924325   10.14439203624381   -6.57779638707907
H          -7.97931857802317   12.78146385429866   -7.01714841207073
H          -6.16661716759311   12.52659693831525   -6.85228246083595
