105
 SCF done       -186.057126209871          0.000405126118
C          -2.53632079943341   -1.14394707408670    0.60331603582103
C          -3.06840134893155   -2.38187684968300    0.34340037591561
C          -2.44815323610984   -3.59892715049845    0.69065116651895
N          -1.98786484924381   -4.62275487486341    0.93342499094128
C          -4.31454450217992   -2.61197466183366   -0.27508297037993
N          -5.32584204827074   -2.88885212955264   -0.74453011155521
C          -1.31291738878300   -0.87969512009372    1.34834520868784
C          -1.17153195451716    0.52190562131545    1.50520584081829
C          -0.11770708173076    1.08758153222855    2.18079511129841
C           0.84100567630085    0.23111493092357    2.73067473736985
C           0.69513059928426   -1.16638470250103    2.56285526135807
C          -0.36996032341110   -1.73966774625340    1.87819693487981
S           2.00149901354178   -2.02845498307309    3.31311341057476
C           2.71443754693819   -0.54185527032664    3.83725007173879
C           2.01368707207362    0.55305592623090    3.47063758100682
C          -2.28305163892028    1.20962047020641    0.82550810911760
O          -2.38570087191006    2.40843491707807    0.65688605160526
C          -3.14215891983797    0.12951207048718    0.27476711194869
C          -4.20177797742656    0.32528413048075   -0.56346865588421
C          -4.93098190363963    1.53633225945261   -0.69420252950405
C          -5.13758880301503    2.43024276867445    0.37900779333254
C          -5.79171517377522    3.69732653328678    0.18325587873420
N          -5.87264451385482    4.55753728660136    1.20676914900519
C          -5.35992507496115    4.23866598745768    2.37102986841916
C          -4.84698964478817    2.92163577225274    2.59378818206079
N          -4.77082760300618    2.05862919239812    1.61158105023449
C          -4.44266116264896    2.51999988945224    3.89006137727769
N          -4.09325721619115    2.22480385314723    4.94073969079424
C          -5.39139475573037    5.18784948610634    3.41978207722851
N          -5.40300309448766    5.94023597588956    4.28431891360948
C          -6.37292473265099    4.07969204107767   -1.05299332830813
C          -6.23644931417422    3.14626211947003   -2.10167356675909
C          -5.53265932628709    1.89579747610804   -1.91725340804923
N          -5.45466840465880    1.19297366530363   -3.04504634455195
S          -6.18065723111521    2.00812917019739   -4.22313981959840
N          -6.62283147823908    3.29834567772620   -3.37181339356020
C          -6.95248718730005    5.38778161066030   -1.17659545279848
S          -6.16514276496685    6.68354447039935   -0.29742861423701
C          -7.25661285782387    7.83460294486875   -0.92169782621533
C          -7.15230089923623    9.25859646313084   -0.50012333747317
C          -8.15615749542581    9.57683624912908    0.61266581244785
C          -8.26336592063025    7.24712031252172   -1.68555378503894
C          -8.06561916089133    5.84378820082564   -1.85046397175645
C          -8.97677655369292    4.94980349030683   -2.62977126135430
C          -9.88145699240762    4.13241544568345   -1.70426949447262
C          -9.32437455480755    8.04189051160232   -2.23514732336017
C         -10.60103194239944    7.63565735290046   -2.46165230188824
C         -11.59135454880807    8.42677755849099   -3.07113689888614
C         -12.86536535760249    7.97047443035338   -3.30755791275553
C         -13.92675945390837    8.64023951511788   -3.95953896135026
C         -15.07066564689042    7.90468046551997   -4.07126166051876
C         -14.98005253970054    6.61719624406681   -3.50435057637567
S         -13.38896329524449    6.36192589813676   -2.82790179861270
C         -15.95081541364275    5.63196470524334   -3.43442988778970
C         -17.26509805311323    5.65128985911228   -3.94413587054053
C         -17.96850673588305    4.51090856637363   -3.69163639340413
C         -17.25845549505866    3.52573963184953   -2.96156429250870
S         -15.63764603510148    4.11529263627057   -2.62709978102889
C         -17.76792336898647    2.31403186808115   -2.56338677019001
C         -17.15645744690756    1.29630238473887   -1.80583810917952
C         -17.79791167545440    0.11585596282243   -1.41061702815484
C         -16.89950654797597   -0.65897243393570   -0.64043522669162
C         -17.03859520792099   -1.87556443726396   -0.00757537564426
C         -15.93497556984368   -2.37157235959430    0.70351121680776
C         -15.76170059487193   -3.53405109718579    1.44113381946773
C         -14.43285744625045   -3.55809591838107    1.97170752642423
C         -13.78564571843275   -2.40801425520155    1.55816876877923
C         -14.68525418559198   -1.63081475256441    0.76332726119960
C         -14.53940943010283   -0.42467941729508    0.13601206850737
C         -15.65123351045915    0.08275356554224   -0.57369024744079
C         -15.81754921868346    1.25593438449270   -1.27891296352231
C         -13.84850785381384   -4.58723577919594    2.79747198046903
C         -14.46738764587363   -5.68838120202043    3.21493344844147
H          -0.03835244610157    2.15856877192043    2.28559424591588
H          -0.43477427124712   -2.80990228791599    1.77286497889596
H           3.62918958938299   -0.58190440074802    4.39607905142512
H           2.30308832405188    1.56084848451294    3.70775988895661
H          -4.52341415903928   -0.47532566188696   -1.21768303766868
H          -7.33764456694191    9.91460307895936   -1.35450315641546
H          -6.14127223038660    9.44841754583012   -0.13621021919900
H          -9.17283738328886    9.39598677691092    0.27106388779219
H          -8.06560551932287   10.61787141505960    0.91153312565660
H          -7.96484832286614    8.94905570895497    1.47949845281464
H          -8.37472918181988    4.26658120854682   -3.22793821371849
H          -9.57739093562280    5.55004745181969   -3.31238555149001
H          -9.28240664575046    3.46382359699088   -1.08933348404320
H         -10.57630613283399    3.53576663249159   -2.29036311227102
H         -10.45469840303566    4.77633767280564   -1.03980135118639
H          -9.07484364395239    9.07334515588021   -2.45329264616980
H         -10.91835846042994    6.65342443411763   -2.14528913267516
H         -11.34063794526414    9.42608023717914   -3.40111627380661
H         -13.81075986911996    9.64304301551854   -4.33143443902492
H         -15.97205472251267    8.25597289218573   -4.54092010720289
H         -17.65509282708605    6.49716261406770   -4.48123536567712
H         -18.98503825846346    4.34614854423121   -4.00357530852815
H         -18.79302624322780    2.12251953714221   -2.85912544177819
H         -18.81060522566825   -0.15459955882918   -1.64700609382747
H         -17.96388876105784   -2.43268640440913   -0.04876121761316
H         -16.50420636505024   -4.29604831899782    1.59156826805176
H         -12.77341414937908   -2.13210415005533    1.79060796922173
H         -13.61561087074211    0.13483073241182    0.17588766527831
H         -15.07007363398633    2.01489841970305   -1.41308792756339
H         -12.81903856281634   -4.41087843544564    3.08300752755940
H         -15.49052035926196   -5.90588028413239    2.96017432597932
H         -13.96772102551614   -6.41345569110325    3.83337606081077
