110
 SCF done       -199.072960557469          0.000821273284
C          -3.20950769708509   -1.90758540804612   -0.54634831173234
C          -2.21007260981384   -2.02784770968516   -1.47574656654340
C          -1.39000118541525   -3.16686977050587   -1.61159942137707
N          -0.69592336289099   -4.06781442108921   -1.76918242661111
C          -1.83205585918165   -1.01384918321027   -2.38144241558539
N          -1.44524290021981   -0.22845045170566   -3.12401241170123
C          -3.54728252529173   -2.87978832758081    0.48273241530738
C          -4.51056905455587   -2.30653079822545    1.35085867508771
C          -5.02698977694528   -2.98551792708573    2.42817489445005
C          -4.57132172339722   -4.28660063351770    2.66223349080398
C          -3.61374465811159   -4.85127122628169    1.78602711898925
C          -3.09179419191155   -4.16726135700351    0.69488997264973
S          -3.20748093109021   -6.47123081864639    2.25796885632086
C          -4.29762396563580   -6.38008065009411    3.59777419047519
C          -4.93951996777876   -5.19544178970838    3.69425796911947
C          -4.85683258619151   -0.95050662647434    0.88402838644359
O          -5.71378335706688   -0.22830532793385    1.34627340879616
C          -4.04134971453120   -0.73639172475382   -0.34190498689953
C          -4.21727390260336    0.28366554350843   -1.22301247334290
C          -4.89639442576648    1.50890512849198   -0.94649824837698
C          -5.65515241887713    2.14441468387214   -1.95084768483239
C          -6.36332996247135    3.37562590839938   -1.70632005721036
N          -7.19204784524247    3.85532092643642   -2.64774362602224
C          -7.28679264848224    3.24128908636834   -3.80070299885099
C          -6.50220857957149    2.07265064985177   -4.07686406709321
N          -5.74034008162002    1.54521652229030   -3.15263444777584
C          -6.57177244125559    1.46772494822253   -5.35675327809212
N          -6.66724719010873    1.01320205074443   -6.40394234879218
C          -8.18003597191620    3.76147323235073   -4.76942910544884
N          -8.88519845377644    4.18336289672800   -5.56801964326874
C          -6.27292243026583    4.06176402089389   -0.47167245039800
C          -5.48757906404459    3.44134802335998    0.51600618790833
C          -4.79825245022519    2.19078229812409    0.28069839783095
N          -4.03710675024931    1.84184140583293    1.31805508711289
S          -4.20897719764475    2.93023945871298    2.47881039544160
N          -5.21893537603160    3.92469819535705    1.73471169960538
C          -6.97525452049986    5.31048582512869   -0.25702031952111
C          -7.13218085277169    6.22321655028582   -1.31227964911985
C          -7.90228253494240    7.34110711316560   -1.12661979446711
C          -8.52411880857524    7.59106095430054    0.11059760577698
C          -8.32278823872216    6.72418587704260    1.17854882550598
C          -7.54883664176876    5.59840959470065    0.99030258643835
C          -9.31805419299521    8.79176665716396   -0.01226060463144
C          -9.18188565904779    9.28650242979025   -1.32355537951026
C          -8.24820444530835    8.41469541734203   -2.12885427638864
C          -6.99655606446985    9.19601976782427   -2.57185017600016
C          -6.23947992151266    9.81621704053825   -1.40359693979843
C          -8.94728299563940    7.81742187033806   -3.36496529923281
C         -10.16808574250772    6.97753244081191   -3.01146458659109
C          -9.85808023069560   10.40998458545305   -1.72530649405969
C         -10.70721323951347   11.07030266851200   -0.82251492547407
C         -10.83779801359990   10.55942099531103    0.47862022403546
C         -10.14884702781869    9.43914624445851    0.89337145210089
C         -11.47115239749610   12.23589657850189   -1.19246798401515
C         -11.28268104504362   12.98202633829398   -2.30134984649004
C         -12.07271774491979   14.10282705669219   -2.68250387642261
S         -11.58262647511510   15.01527879058354   -4.10385632902847
C         -12.93768567740512   16.06435244579512   -3.93455618307296
C         -13.71748990149855   15.70536766763571   -2.82677237645880
C         -13.22842822718186   14.60729927523355   -2.12135027555785
S         -15.11767690842423   16.72689256352266   -2.63410029346673
C         -14.64812237088736   17.63387118431879   -4.04813683631823
C         -15.20220054455750   18.71548869524133   -4.71881012015156
C         -14.44091558568519   19.09998039988718   -5.81643687243416
S         -13.01534240708125   18.08607250489427   -6.00920162033868
C         -13.45887956950103   17.16015580178471   -4.62305122644221
C         -14.74671203026691   20.15956634490145   -6.68670454632367
C         -14.00716272408039   20.62563269610823   -7.74147998621757
C         -14.37329225296089   21.70617764849145   -8.58920654166920
C         -13.46023569065567   22.00168602146016   -9.54961617872635
C         -12.30989225485012   21.17434928206610   -9.52123078701082
S         -12.44699741663375   19.99152538750597   -8.23117197982181
C         -11.20341154540132   21.23416614522482  -10.33497150821445
C         -10.96852843204341   22.13793694018778  -11.40983501794638
C          -9.77808934929838   21.97178076759290  -12.02643562462008
C          -8.97129003292817   20.91648860818882  -11.48296186772759
S          -9.84073537536014   20.15221974782739  -10.14220062161515
C          -7.75142246683093   20.52900071188103  -11.87915907881528
H          -5.76062913832297   -2.52521516096595    3.07185443042695
H          -2.37136950776853   -4.64177237679317    0.04953180537671
H          -4.39178358696968   -7.23407731401707    4.24007234140984
H          -5.65353226019582   -4.95871551327395    4.46223510829252
H          -3.86959121362662    0.17486526188249   -2.24292536201906
H          -6.64167566062671    6.04636753321419   -2.25558627117752
H          -8.78083506143895    6.91570030235508    2.13734370560442
H          -7.40806341019683    4.89959195190807    1.79936868125218
H          -7.30370342440042    9.98275091786379   -3.26402317720623
H          -6.33551368481686    8.51578060719537   -3.11256220276204
H          -6.87226841992106   10.51640763890606   -0.86246987963458
H          -5.36605589098878   10.35259949594625   -1.76722900076711
H          -5.90683729692196    9.04768293636527   -0.70929495892874
H          -8.23270692365423    7.19449683712332   -3.90606100363479
H          -9.24620530462624    8.63320923578483   -4.02623581676985
H          -9.88568017065868    6.13987289654230   -2.37801721566052
H         -10.61765382156122    6.58085264265907   -3.91819292408052
H         -10.91057922614226    7.57498660599414   -2.48609666638597
H          -9.75962189777695   10.76961664060947   -2.73765369060607
H         -11.49430839261774   11.06723366562037    1.17090988357010
H         -10.26290267527357    9.06695251781884    1.90052894149959
H         -12.24876833101906   12.52235421486156   -0.49691723311537
H         -10.47284526952988   12.74939844596404   -2.97879259620561
H         -13.70294976121061   14.19305011770036   -1.25190462491835
H         -16.11093669062655   19.21173591518151   -4.43258186734614
H         -15.68041986806712   20.66995812363829   -6.48617955977457
H         -15.30445670607197   22.22753284299341   -8.45245482019104
H         -13.57526293509884   22.79024871909810  -10.27136740099370
H         -11.69615037704272   22.88049406790294  -11.68530361756798
H          -9.42611124802534   22.55925785722500  -12.85564179760544
H          -7.25713428994529   21.02190641143790  -12.69758871819724
H          -7.23079674117104   19.72178949718885  -11.39769333837556
