121
 SCF done       -215.389131509717          0.000763309461
C          -1.67440879145641   11.65407565374592    1.63125973803767
C          -0.85884658331094   11.50315259171085    2.72181495555677
C           0.55018106982579   11.48205875053312    2.65959088221441
N           1.69775729742321   11.45993099119456    2.67148777115456
C          -1.30842758954813   11.30547772779013    4.04500535604281
N          -1.59265683739554   11.10888095080790    5.13992266265140
C          -1.24203543867362   11.73848696239496    0.24362000409853
C          -2.38769086155388   11.75308853387289   -0.59179932492111
C          -2.30064604913274   11.81715993327164   -1.96188345158805
C          -1.02675524418679   11.85782230160210   -2.53597874884272
C           0.11098549399963   11.84410452145534   -1.69333214805708
C           0.02464568216996   11.78778784057502   -0.30758661214259
S           1.57827988057855   11.90537616056738   -2.61722740098691
C           0.67652961644489   11.94478707796336   -4.09228451090046
C          -0.66174856327975   11.91535181287327   -3.91052748476232
C          -3.60597900188179   11.71118215257356    0.23535411323466
O          -4.74723234635466   11.83249588685811   -0.15466792406455
C          -3.12615929853468   11.63910396929168    1.64386927187366
C          -3.92623423748983   11.72086634596609    2.73932888610785
C          -5.32989816265041   11.45626568226920    2.75262947599556
C          -6.18419559534313   12.13006054161830    3.65024003025903
C          -7.59814609650112   11.85296365041880    3.72522027943319
N          -8.34212079388802   12.48201153249474    4.65047604912020
C          -7.78509056246009   13.38145978816295    5.42621390893214
C          -6.39369215863277   13.70001138688819    5.30375390489177
N          -5.63783548936822   13.07077457078218    4.44126681504063
C          -5.82880386519795   14.70530127172056    6.12929493242019
N          -5.42128271372345   15.53069768102943    6.81079620176798
C          -8.60094723361580   14.05236788585487    6.37059702828375
N          -9.26068104231137   14.62258908728968    7.11358523712344
C          -8.21485026945433   10.88997891589601    2.89309720643793
C          -7.34343582032670   10.17960416872185    2.04292813643842
C          -5.92645061029967   10.44627094016932    1.97635975295909
N          -5.30249048390497    9.59373169551391    1.16209844693689
S          -6.38269239605448    8.61820491449160    0.50005639610979
N          -7.69294126255218    9.18041941147853    1.22632803125947
C          -9.60327512441990   10.52286321080857    2.95666955415106
S          -9.97321566614271    8.82712373542593    2.75380327097656
C         -11.63344447910773    9.11883272372479    3.01785601593256
C         -11.91739554866221   10.44172447600252    3.20832861558409
C         -10.75796883821499   11.25238045142220    3.17381814361177
C         -10.86482265237163   12.74836696063163    3.21397357906430
C         -12.17125015855486   13.16352730257850    3.91129568588205
C         -13.37001405949314   12.47480096540817    3.27019209074583
C         -13.28856162834829   10.96822555651484    3.49809586182164
N         -10.79728834127638   13.24407290789940    1.84778943300227
C         -10.88158705156775   14.57803601302959    1.54025456333779
C         -11.41925681282534   14.95633533590155    0.29833344365745
C         -11.52549170715243   16.28568447138255   -0.01780019329842
C         -11.07810965668133   17.27562493530269    0.87768369430521
C         -10.50877881181200   16.90835686977234    2.09001851419848
C         -10.41891861356025   15.57179445568498    2.41655048018564
C         -11.36694835758362   18.57070413260526    0.31373107968798
C         -12.00185295937129   18.38722063203961   -0.92983337213160
C         -12.13451017620188   16.91626310190625   -1.24783534299663
C         -11.35330765594098   16.54138950535850   -2.52063530721264
C          -9.87688692986297   16.90922549792829   -2.43703086788842
C         -13.61288731057924   16.51451888335168   -1.40927765858701
C         -14.46117816842131   16.87241879322796   -0.19473132578903
C         -12.43941369499212   19.46414318873560   -1.65378998048824
C         -12.26425196519416   20.76631781895761   -1.14850135495858
C         -11.59982799384090   20.93308093299992    0.07732265924978
C         -11.15289194439313   19.85326398999057    0.80616572446421
C         -12.85460807702931   21.85480397025432   -1.87144353564043
C         -12.82295911376625   23.17057567342515   -1.54781593834709
C         -13.47889037981029   24.19532925111736   -2.27560614420161
C         -14.57061996095918   24.14242616305919   -3.09236509658080
C         -15.59154682621000   23.14686984937203   -3.34056815170886
C         -16.03922076134739   22.17847358906486   -2.47698577813445
C         -17.08520841711532   21.28067816293291   -2.76845705555696
N         -17.90622613532120   20.49933769659715   -2.95522382100245
C         -15.56403320679679   21.99127219132241   -1.16435752003793
N         -15.25595355060439   21.80347081766204   -0.07434603366196
C         -16.25761481319456   23.50919261375434   -4.58942063407629
C         -15.82492948517142   24.80210709068470   -4.97900056479064
C         -14.81137192230899   25.28047876567166   -4.02117088291339
O         -14.25375621435665   26.35555954532882   -4.00627940887843
C         -16.31576495045690   25.43993958123410   -6.09240717284599
C         -17.26979218187721   24.76826933600651   -6.86314393037790
C         -17.68156203539953   23.47102501005418   -6.47598188480922
C         -17.19068898482161   22.82734171213614   -5.34601044382261
S         -18.85856953837400   22.82976760691228   -7.57903785762351
C         -18.79604276292162   24.27697311988112   -8.52509207463759
C         -17.93406028217336   25.19980762849498   -8.04628646189357
H          -3.19053465530571   11.83034398066970   -2.57181086951799
H           0.91948132152487   11.78784935091543    0.29199414114648
H           1.21366962429653   11.98899653666451   -5.01974992062562
H          -1.37854551636077   11.93395922708713   -4.71133467554233
H          -3.50800532546025   12.02158517948886    3.69134120281048
H         -12.32511721827360    8.29942192405557    3.01672589432359
H         -10.01924646246284   13.16034715556805    3.76984831125961
H         -12.27791815696950   14.24716398275469    3.84242568089205
H         -12.10566308599865   12.89384862490030    4.96634082291893
H         -14.29524666527764   12.86051782096510    3.70023931526722
H         -13.39032430091748   12.69339386611937    2.20002427161661
H         -14.02679770345283   10.44241277546850    2.88911197555259
H         -13.51887225039385   10.75249076257465    4.54631825593233
H         -11.22408355349392   12.63135099442876    1.16602957104449
H         -11.76635035363069   14.19061404570933   -0.38224830403572
H         -10.15236283582545   17.65718555325125    2.78085394505143
H          -9.98887260421058   15.28949272216925    3.36501422070169
H         -11.80719909748615   17.05294542466060   -3.37206368459536
H         -11.45038088247431   15.46626067087069   -2.68671850299569
H          -9.75597568006222   17.98008543958866   -2.28904386784343
H          -9.36849058130025   16.62904354581349   -3.35681188558266
H          -9.39857237283599   16.39279741391818   -1.60778417144098
H         -13.66483150525143   15.43775067077891   -1.58565857289291
H         -14.01747119864558   17.01498346414467   -2.29130690130867
H         -14.08327601998460   16.37863052978286    0.69800434435499
H         -15.49057261242996   16.56005833660137   -0.35360709664538
H         -14.45314609356644   17.94605840891951   -0.02122852062541
H         -12.94426742081064   19.32709535305854   -2.60005177259503
H         -11.45418296176546   21.92686083277420    0.46963764794659
H         -10.65863763128995   20.00051885042812    1.75451592378054
H         -13.37835546196314   21.56984601513451   -2.77721529306708
H         -12.21086185832299   23.50532432390984   -0.72238891544556
H         -13.02477960303098   25.18135210187239   -2.22120767207922
H         -15.97563688027939   26.42867953837916   -6.35851422748250
H         -17.53196555590863   21.83683862226545   -5.09439471333299
H         -19.41953783902425   24.34651859576974   -9.39517146049563
H         -17.76313673759218   26.15808784443900   -8.50245897847433
