126
 SCF done       -207.058642097680          0.000387569416
C          -5.70723823349242    7.27572874187018    3.43378961705209
C          -5.44659392685868    8.61382065567071    3.59659179044488
C          -5.12888631651359    9.21475916887985    4.83186502136399
N          -4.86718677129752    9.77145894598091    5.80176686807239
C          -5.47579297848515    9.58655747537330    2.57725149979795
N          -5.48141358506178   10.43994787045436    1.80662532972677
C          -5.70741632336448    6.27889971565994    4.49687056953110
C          -6.10463659438690    5.03112729753367    3.95111851630070
C          -6.17857112441793    3.88316794098746    4.70163805938672
C          -5.84986414022763    3.97179275146639    6.05746162639439
C          -5.46596979198043    5.22167475901960    6.59750943721435
C          -5.38647568516949    6.38249133556948    5.83714167534973
S          -5.10856742660305    5.08935265974191    8.29133677506016
C          -5.46439349390641    3.39477045454964    8.25803812287476
C          -5.83689696194176    2.94384601078883    7.04122402383192
C          -6.39548729113588    5.20146623459002    2.51902746798696
O          -6.81168410556330    4.34653623060512    1.75731120057954
C          -6.07256115262483    6.60047370309196    2.20252212143766
C          -6.01454375585619    7.15371608823037    0.95174957356801
C          -6.35826988097021    6.62246197771403   -0.30146904345810
S          -7.17853872245993    5.10057301385288   -0.57368565311810
C          -7.22622229123500    5.38320241407152   -2.26411242371363
C          -7.73233018038672    4.31988307629118   -3.17577031086587
C          -6.57015732256447    3.44692522859868   -3.66118463807800
C          -6.59746725451136    6.56337483508286   -2.62528251933431
C          -6.11515422765753    7.27619178233277   -1.51227969225219
C          -5.38852927923304    8.57709428208301   -1.64546366839213
C          -3.87309604408456    8.36398566685738   -1.58278702650973
C          -6.35866555788294    6.96881731221005   -4.00145119943481
C          -7.28993722605876    7.14144447460404   -4.95613358702793
C          -6.98665337150250    7.41210647071470   -6.32621819002935
C          -5.87748723720932    6.96868923785043   -6.98193627543957
C          -5.52995865234017    7.19473444348672   -8.34507669156212
C          -4.43055650531003    6.51990174695114   -8.77002488014828
C          -3.83761605222946    5.70205552534267   -7.77737477824943
S          -4.69799258524103    5.87395597323969   -6.26202108215590
C          -2.76184252639689    4.85017047694983   -7.86612298987097
C          -1.85414164796461    4.64320732591906   -8.93154856107437
C          -0.89893048251863    3.71531944018354   -8.66689374326801
C          -0.99359694744582    3.10308884855942   -7.38176119255871
S          -2.36266927123032    3.79714142637709   -6.52262608619321
C          -0.13191091108491    2.16408581375727   -6.89600001014386
C          -0.16729054355189    1.45574315519733   -5.65208868833722
C          -1.30962407403644    1.39541347493155   -4.83374294919849
C          -1.27416073057125    0.67727906896514   -3.66702785967772
C          -0.10293925874477    0.00980870725724   -3.26381552865913
C           1.03363287585546    0.05389762720308   -4.06387789168964
C           0.98703760957737    0.75853435309423   -5.24570660520746
C          -0.36598352794338   -0.66457501631802   -2.01654621232109
C          -1.70619287795532   -0.43090398835119   -1.65127409132909
C          -2.38791522533797    0.45088821747389   -2.67167353762915
C          -2.86815314777053    1.77635693841695   -2.05139764415930
C          -1.74879872584845    2.55223976059317   -1.36873016263820
C          -3.58264480608722   -0.26727728744825   -3.32766788115140
C          -3.19647733281282   -1.59181940818691   -3.97494371003988
C          -2.22412936065812   -0.99449478717572   -0.51412152337666
C          -1.41376853956735   -1.81088509018853    0.29796597321685
C          -0.07305301806899   -2.01189454072743   -0.07048741689353
C           0.45216036516784   -1.44995511802978   -1.21271958739243
C          -1.99698791069237   -2.40584611472304    1.46608638875304
C          -1.40061206931659   -3.28386087271393    2.31169552593354
C          -2.02631328780646   -3.93028329438557    3.40438594598511
C          -3.15511926347504   -3.63252576399576    4.11380357903077
C          -3.97999461515250   -2.45638478822406    4.25647019649313
C          -3.58978185938754   -1.14606614124964    4.12016127454774
C          -4.42047367456948   -0.05174327290652    4.42293431118439
N          -5.06008435603859    0.87292890171047    4.65910099118917
C          -2.29191003418589   -0.74040000107482    3.75638450939915
N          -1.24577329738572   -0.35439659854347    3.48290728099051
C          -5.25209159562711   -2.88292020587892    4.83593395979515
C          -5.13140850416711   -4.23095149821416    5.25714465108235
C          -3.78878025507662   -4.72610396847363    4.90139554502333
O          -3.30586554563918   -5.80756606406472    5.15431248991417
C          -6.15746576292596   -4.90678975736192    5.87126866607678
C          -7.36271839455250   -4.22509772234918    6.06844336826068
C          -7.47895662672692   -2.88580750634874    5.62800585518382
C          -6.43844827066293   -2.19899125172486    5.01258530920594
S          -9.05971088983401   -2.24967843999182    5.96055286971811
C          -9.53962436514620   -3.74984632988914    6.67607808749262
C          -8.56844778847580   -4.68817334052898    6.66788897852936
H          -6.46237458214671    2.94162759881527    4.26044066139194
H          -5.07805820269464    7.30896062008869    6.29208192151705
H          -5.36846867257397    2.83666258879304    9.16920465297243
H          -6.08265567679922    1.92197247491744    6.81859129439798
H          -5.62222438599787    8.16050227579398    0.89688830795266
H          -8.22806620740072    4.76652369145047   -4.03839314089949
H          -8.45206187632626    3.69957948963652   -2.63896540708435
H          -5.85011069494160    4.05103883650937   -4.20884160107669
H          -6.93935869459233    2.66341649019772   -4.31790715886973
H          -6.06762308599226    2.98594449650305   -2.81416937225749
H          -5.68744806416672    9.27160916640162   -0.85810200951531
H          -5.65087244065043    9.02820354599690   -2.60419458414745
H          -3.58623566530527    7.92952746418151   -0.62789942893414
H          -3.35818944343230    9.31402923628382   -1.69878379022849
H          -3.54813851818677    7.69197709402368   -2.37424174634899
H          -5.32115284050640    7.16880961221492   -4.23661614392629
H          -8.33976619553310    7.11347524453283   -4.69100562706582
H          -7.72010485677825    7.95807707444318   -6.90470318320126
H          -6.12056075188104    7.84670841452027   -8.96477009455100
H          -4.04405313445932    6.55826246486352   -9.77321938071666
H          -1.92665610812398    5.19679873687095   -9.85095723601033
H          -0.12051126134447    3.43361345839209   -9.35442150411754
H           0.70919167397376    1.93221493335208   -7.53912221718326
H          -2.22229524042270    1.88031497464601   -5.13864683662259
H           1.93501537088729   -0.46254287026521   -3.76910744064451
H           1.86175926415010    0.79363816603669   -5.87960426668358
H          -3.65269548746789    1.55887719527248   -1.32338700230261
H          -3.30374399601205    2.39060339591441   -2.84264714312657
H          -1.31153395842780    1.96978908809203   -0.56064026281111
H          -2.13941084719797    3.47756658361525   -0.95185709335397
H          -0.96389568949601    2.79927199139006   -2.08018026129407
H          -4.01282620945960    0.39404846578160   -4.08258973640092
H          -4.34483372785341   -0.44440582228740   -2.56599194087157
H          -4.07120636876337   -2.05928096641624   -4.42130347575579
H          -2.78026673979236   -2.27471304630473   -3.23729508034632
H          -2.45419942861150   -1.43618009440242   -4.75467966858937
H          -3.25328312360091   -0.82253234066149   -0.23135722500862
H           0.56370421399885   -2.61855748388043    0.55334356952005
H           1.48406160767272   -1.62013186465135   -1.48102117041858
H          -3.04062944725780   -2.16440248034774    1.63019272168302
H          -0.39139574468665   -3.61154021941760    2.10685033881070
H          -1.58211443627803   -4.87938564223617    3.69476281072854
H          -6.03461961538744   -5.93067442105439    6.18843324311168
H          -6.57923852687204   -1.18345158142656    4.68149915879573
H         -10.53621783563283   -3.83612810200926    7.06331474893701
H          -8.68547182617300   -5.67915880367435    7.06766928069876
