114
 SCF done       -201.163115164748          0.000960796555
C          -5.19797669094940   -2.33740419556265   -1.24917390407197
C          -5.72165209270645   -3.56675723914070   -1.58107704995471
C          -5.09685274034361   -4.79583788442695   -1.29265165098586
N          -4.64525320423976   -5.83303485036114   -1.09197546911983
C          -6.93566405027101   -3.78971947387276   -2.25802227677521
N          -7.90956416084471   -4.05957402209230   -2.80844577390867
C          -3.91802401640819   -2.12287521218259   -0.57757551079866
C          -3.70995201684438   -0.72751517550537   -0.43762673531506
C          -2.58769250781724   -0.20030305756331    0.15096553159301
C          -1.61999277896660   -1.09217791049373    0.62656414416019
C          -1.83612466617405   -2.48196096342654    0.48446086253474
C          -2.97374402607210   -3.01596899753127   -0.11223241786891
S          -0.51303283699546   -3.39396257472508    1.14168722120537
C           0.30131695667915   -1.93538885876712    1.59059761300895
C          -0.37961738827428   -0.81442392226646    1.26736399164521
C          -4.86154924235005   -0.01226452034755   -1.01538839755388
O          -5.01059568893667    1.19968683531361   -1.06267818965323
C          -5.77510192235158   -1.04066549691073   -1.50600349227478
C          -6.99883004912882   -0.81799965124466   -2.10695273864766
C          -7.64738061917357    0.36157219661312   -2.44095657444147
S          -7.05325189495429    1.97879196368462   -2.18939571923015
C          -8.43603994159176    2.69128519238075   -2.94571494780728
C          -9.35216307434596    1.71008711607757   -3.38850846806830
C          -8.91570268841338    0.39450062887909   -3.09099501653167
C          -9.72512114456515   -0.69004835330615   -3.43279995089570
C         -10.93561807417102   -0.49773186719479   -4.07290931725859
C         -11.77711161296444   -1.64518593320019   -4.40066074737002
C         -11.34281357267721   -2.88683118651262   -4.58458698325985
C         -11.36374753269978    0.82197783955038   -4.38852549895409
C         -12.65905871730700    1.05173613427900   -5.10667864447645
C         -10.57870847194248    1.89452154489937   -4.04374633092301
C          -8.57648514299050    4.08832687368050   -3.06754358161557
C          -7.69531764141606    4.97955377701151   -2.53391590653238
C          -7.78418208899167    6.38576218098087   -2.61948913183556
C          -8.69161670660676    7.18090983709976   -3.30476012909254
C          -8.43007974404670    8.53484358139758   -3.12263356222904
C          -7.31759399712159    8.79313994617613   -2.28536087089989
S          -6.58941870463575    7.33562267185709   -1.73697207954616
C          -7.19312537231975   10.17697662589178   -2.19431689244283
C          -8.22663251343445   10.73801283776906   -2.98203662200816
N          -8.96737563171592    9.72654805840084   -3.53669750857128
C          -8.23451541353874   12.12969469092127   -2.99147999669490
C          -7.21536406481025   12.65295090438445   -2.21097611723775
S          -6.23361711375406   11.39707202585385   -1.45559804758526
C          -6.87610496155693   13.99795514652681   -1.93782368847081
C          -7.44785470755791   15.08735421375760   -2.51978786543265
C          -7.12673111792659   16.43558936879927   -2.24844514771774
S          -7.49881545233502   17.62069538986929   -3.45245243655421
C          -6.80693810206548   18.93401192859170   -2.53533853736011
C          -6.27651999412047   18.44226556050848   -1.32206557214867
C          -6.49474629675154   17.04309703092246   -1.14204518779459
C          -6.13565780317064   16.45076327057599    0.07811015008186
C          -5.46962977376376   17.16990995067051    1.04659075538524
C          -5.12051759877183   16.54238399766519    2.31900884147158
C          -4.83934441027574   15.25596329312423    2.48129803845034
C          -5.12042653675893   18.52791028391767    0.79899416217373
C          -4.29915219320128   19.29711098086379    1.78424340884025
C          -5.53850267510629   19.14145701373678   -0.35500211493441
C          -6.88147337168850   20.21417353294216   -3.09806220588664
C          -6.69730836338963   21.43175396732711   -2.48995609795958
C          -6.81351470261293   22.61114617745955   -3.23508817495529
C          -6.77983820845232   23.92956711448023   -2.84895059789396
C          -6.49573449766337   24.61196240644799   -1.61343133002780
C          -5.71300303427278   24.18727629070095   -0.56464757131496
C          -5.48767079044492   24.93138435668643    0.61080705567823
N          -5.27631207619411   25.46329139547991    1.60708549445522
C          -4.94235199154314   23.01376573589298   -0.53741601662619
N          -4.23742213341778   22.10958395896705   -0.44620308723851
C          -7.04057557309251   25.96609086809933   -1.72629410313425
C          -7.46331414969130   26.17800678166384   -3.06231856299617
C          -7.27222723057728   24.93232018220636   -3.82653468552843
O          -7.50266113810074   24.74314365296784   -5.00268248298967
C          -7.97869569615334   27.37480583369470   -3.49513734531897
C          -8.09442188307433   28.41157845885505   -2.56340362651571
C          -7.68739009847346   28.18540051359714   -1.22833310945843
C          -7.15816309060120   26.97574317522720   -0.79164206250154
S          -7.93201909274442   29.59817007504439   -0.24908612656308
C          -8.55852925940303   30.46309537972644   -1.61036460731971
C          -8.58895483764183   29.73407168421745   -2.74682262872889
H          -2.45847811232383    0.86720047503397    0.24107662452150
H          -3.08951196548281   -4.08358162645599   -0.19568861384587
H           1.25476471240080   -2.00982970270156    2.07646359437097
H          -0.02930266480072    0.18188544382373    1.46861829955237
H          -7.55343419676858   -1.70546792965318   -2.37654177123532
H          -9.42370835926546   -1.69416129874705   -3.18112923902741
H         -12.83432127337154   -1.44091238850718   -4.50027436319399
H         -10.30259378405839   -3.15819322321213   -4.52793274392692
H         -12.02632718010968   -3.68669392983493   -4.81295800921619
H         -13.50311396626972    0.76344432437303   -4.48001233848744
H         -12.70117860805227    0.46409113033948   -6.02225445291640
H         -12.77117161904567    2.10231920398108   -5.36345965519231
H         -10.90891774863078    2.89507450131875   -4.28115567101104
H          -9.44236376441744    4.44941159194142   -3.60411079420838
H          -6.85125009382744    4.59323267509240   -1.97733870476373
H          -9.48859153235687    6.78429742447755   -3.90563286963802
H          -9.76165884265457    9.83892236262070   -4.14193058977351
H          -8.94176402207004   12.73688460525974   -3.52495399215173
H          -6.06176739903570   14.13435008548716   -1.24265360436274
H          -8.16618405387228   14.93420515145794   -3.31456248332090
H          -6.42166474302382   15.43285803121046    0.28339566986943
H          -5.08774640792091   17.20246436075129    3.17505410079385
H          -4.81786733290180   14.56048696023459    1.65880199682110
H          -4.59848155381312   14.85046908454298    3.44885935180156
H          -4.86736851875804   19.48302070116409    2.69623787454368
H          -4.00658845666102   20.25479825277183    1.36235419682064
H          -3.40312259134024   18.74087660908173    2.05430270520635
H          -5.25402754809496   20.16543238557685   -0.53039437865204
H          -7.16661769056870   20.23258711440052   -4.14487307261781
H          -6.52627765164306   21.48543533878755   -1.42904277860426
H          -7.04682406476847   22.48702910834700   -4.28969107271181
H          -8.28284057771309   27.50715372035149   -4.52187514446076
H          -6.86778576784964   26.85443903828478    0.23854447200223
H          -8.87004664763977   31.48008965038006   -1.47129188324288
H          -8.94581845173143   30.10475957423738   -3.69077072396713
