112
 SCF done       -207.157686467871          0.000438711971
C          -9.28766730212598   -0.14777617480735    5.13904665001718
C         -10.34867626608722   -0.93655737916172    4.77964857921248
C         -10.91408860746032   -1.92685015288774    5.60986351725240
N         -11.42119831565240   -2.73739808210325    6.24487377302128
C         -10.99384678006457   -0.88944322270919    3.52573637549116
N         -11.55063813541047   -0.91842096603155    2.52199449808385
C          -8.53457268841618   -0.23361805058599    6.38176947068450
C          -7.42874485348439    0.65187176214796    6.30557153422725
C          -6.52162284732639    0.79294551880833    7.32813547682957
C          -6.71326651464776    0.02464944444395    8.48041499706482
C          -7.82255957949617   -0.85297953538814    8.54981094717346
C          -8.74016208916124   -0.99637290345217    7.51553957863150
S          -7.86396707292300   -1.69371232245321   10.06674306640678
C          -6.42579657573711   -0.88390638717793   10.58311708729535
C          -5.93121724910564   -0.02126355748312    9.66843543008855
C          -7.44095815316021    1.34322084442935    5.00904619527786
O          -6.65267317925265    2.18464187416744    4.62293847744521
C          -8.65726315620217    0.86439172401960    4.31050141441243
C          -9.20894866758447    1.45174942692547    3.20871695026568
C          -8.59229108325830    2.39013726470878    2.34872144179857
S          -9.57310604644364    3.63477205983840    1.62592933408850
C          -8.20668046977439    4.37949035108987    0.85659061666729
C          -7.04983109308339    3.65100431982796    1.12282135049393
C          -7.27179762075350    2.52536250355473    1.93252296076240
S          -6.13251266704121    1.21504307882239    2.16740639771510
C          -4.51826499422270    1.89279926775166    2.00462373533499
O          -3.57558527479151    1.15519670835938    2.10652009246918
C          -4.29373910738616    3.35425875148955    1.69796598749402
O          -3.26810705468774    3.90134439571244    1.97641287787134
S          -5.45208163660547    4.22019080873221    0.65185180889052
C          -8.43431859721324    5.57112468723670    0.11539475982265
C          -7.56562587975735    6.16296279616596   -0.73325566576160
C          -7.79233676408438    7.38009840614573   -1.46686066710482
C          -6.86278960274835    7.73497031067253   -2.46120613086611
C          -7.04148899909804    8.88427653481846   -3.18965985209799
C          -8.12202266682911    9.74088358767834   -2.90191404399305
C          -9.04495217607598    9.40571380864401   -1.91875193124438
C          -8.88255549867903    8.22859441995093   -1.22103828264171
C          -8.01447600580052   10.91719990913765   -3.73107373077079
C          -6.87010786268616   10.79043266352966   -4.53884682995508
C          -6.19999717644602    9.45200155572475   -4.30978109781108
C          -4.72341184643559    9.59951310919826   -3.91569496709675
C          -4.53447597087285   10.50396011507674   -2.70316317123096
C          -6.36548182121585    8.63793695800704   -5.61554297146168
C          -5.92497603205362    7.18163265696084   -5.55143502276202
C          -6.52171048332423   11.78944480480613   -5.41099682251720
C          -7.30612646749711   12.95478243053312   -5.49523496366278
C          -8.44557506719299   13.06272697679185   -4.68016198731704
C          -8.80315211796858   12.05932400435248   -3.80630518427089
C          -6.90056147456170   13.97448887995472   -6.42307210092975
C          -7.51732073177965   15.16241417996502   -6.62903068816702
C          -7.10614052871920   16.15236522840905   -7.56607653181226
C          -7.84745670257607   17.35642980042689   -7.67365838025936
C          -7.50616911220902   18.39997152331191   -8.60370986324283
N          -8.23848312469911   19.51607619422233   -8.65588651901272
C          -9.27394065446342   19.65069050382929   -7.85540352895726
C          -9.62054704355187   18.61123007103894   -6.93705081840298
N          -8.91287226882163   17.51088890416150   -6.86726384777210
C         -10.74381154852082   18.76137875327186   -6.08536344427775
N         -11.65844082690264   18.91049262832417   -5.41172553176225
C         -10.04105605872374   20.83767479834719   -7.91668379910110
N         -10.68162331915089   21.78792138534206   -7.94468811666046
C          -6.39544890526600   18.28793830824661   -9.49915378669750
C          -5.65366162907528   17.08633592481916   -9.37935112784511
C          -5.99543021522687   16.04496382136506   -8.43638230387862
N          -5.14375984706819   15.02148083332516   -8.51564043153889
S          -4.03645160148205   15.32389916754515   -9.64141595070374
N          -4.57870705106602   16.77107823745626  -10.09062939291241
C          -6.14873523260440   19.34046206907783  -10.38961136478276
C          -5.20959915802106   19.51712054400841  -11.38386988178724
C          -5.17764204900681   20.69038497484644  -12.18362529997709
C          -4.21110853737917   20.70299131476264  -13.14066761952390
C          -3.42239630524663   19.53115202478958  -13.14624173410444
S          -3.94465778781744   18.42473346934338  -11.88899220711380
C          -2.37524757553231   19.22128273894860  -13.98983005658052
C          -1.85135949415543   20.01527702661443  -15.04703446539199
C          -0.82123723744010   19.44604959938695  -15.71319928992060
C          -0.45022906565954   18.14859686259089  -15.22719920950502
S          -1.50254205906418   17.71327748557551  -13.86961329717210
C           0.52223002694898   17.34720663914878  -15.68504112818690
H          -5.68822870055756    1.47241936245931    7.23901497117898
H          -9.57139274084583   -1.67421834993417    7.61672300225411
H          -6.03345125279095   -1.10737422579329   11.55615946351298
H          -5.04505311495568    0.56933050024878    9.81460804418059
H         -10.25486802262764    1.26461423465943    2.99621099844325
H          -9.42315222008119    5.98702303432783    0.25080234467330
H          -6.61351880115948    5.68653480615854   -0.92062013841200
H          -6.01053478822222    7.09373172599475   -2.62988207217950
H          -9.87298692628878   10.06235294804441   -1.69812096080757
H          -9.59373058844758    7.97277236174312   -0.45138594997250
H          -4.17205744726810   10.00900787551085   -4.76459763258945
H          -4.31200610019289    8.61473338077563   -3.69140819631136
H          -4.90864512441734   11.50488768666622   -2.90643886766215
H          -3.47924755007268   10.57555953682392   -2.45024667842460
H          -5.06805795008785   10.10722984616740   -1.84209493862442
H          -5.79835275293402    9.14876241614958   -6.39681917351900
H          -7.42076956986348    8.67208170011559   -5.89954199940644
H          -4.88176543046129    7.09399568122694   -5.26003058216638
H          -6.03818811402267    6.72941640503974   -6.53445507528131
H          -6.53760512595340    6.62071742639987   -4.85093073386586
H          -5.64437082971902   11.70177906918932   -6.03576964555249
H          -9.05688628077570   13.94937433765115   -4.73797014684650
H          -9.68276875993544   12.16069462178994   -3.18836128391781
H          -6.01714665429730   13.75441537964939   -7.00630255266676
H          -8.39869122139777   15.43428515709082   -6.06647999614028
H          -6.84465234651317   20.16429715058779  -10.27580603277045
H          -5.88079396514020   21.48862330807911  -12.02230262282125
H          -4.05313162677759   21.51257897411842  -13.83034250203538
H          -2.26057376464195   20.98316496197788  -15.27549929020770
H          -0.29920046962941   19.89318516891668  -16.54022751444240
H           1.13779505842059   17.64879025459512  -16.51407548652039
H           0.71620641806480   16.38589826437725  -15.24577909261636
