110
 SCF done       -179.391340589187          0.000282061804
C          12.99473233232459    2.70002767840110    7.58025718123120
C          14.10713135486904    1.90018275065323    7.36369169347263
C          14.02837645830465    0.76301959574956    6.56698935446033
C          12.81161061946426    0.44987769658109    5.99540564114454
C          11.68636978037967    1.25953530554601    6.21471572575878
C          11.76759650092832    2.38895845346883    7.00717984937508
C          10.53097897836210    0.69247325343762    5.49287213187613
O           9.38386858929695    1.12570340340453    5.44800680785304
C          11.01983169809638   -0.51014502954565    4.82577709517103
C          12.44885287116121   -0.69380724011480    5.11366016715245
O          13.17448718970751   -1.58069211423074    4.72337849354981
C          10.22753037171702   -1.31950509474078    4.06185841426876
N           8.92999013722599   -1.02741217058613    3.89859517513552
C           8.00017054963836   -1.71537604197124    3.19081840362511
S           8.40402800985488   -3.16380269639133    2.32534847542292
C           6.74857904458814   -3.29820307871526    1.82581164771357
N           6.39892870955093   -4.37793987282001    1.00935480088407
O           5.23563780219026   -4.47117784817669    0.66096537331010
O           7.29263395278082   -5.15078069620895    0.70595479725094
C           5.94826628779745   -2.29330658755640    2.30023158619749
C           6.64759568286643   -1.36251987765949    3.09225292297159
C           6.08586752531484   -0.19271668015205    3.71806507064650
C           4.76828639408149    0.05814452124337    3.81646871719046
C           4.16149392913462    1.22300131781600    4.41856787043376
C           2.77274581841547    1.21314885656200    4.62677370724456
C           2.15791092301377    2.29852983360591    5.19842341535380
C           2.90446976473356    3.43421439404768    5.55570197962114
C           4.27707265925271    3.46125137995286    5.34650436407078
C           4.89261141432769    2.36036676004918    4.78776911162224
C           2.00886315626876    4.40844853164385    6.13497626762951
C           0.70733589543230    3.87181347006941    6.14980126602697
C           0.68784896886845    2.50972030200151    5.49268077833767
C           0.12208869369895    1.42392151614921    6.41963040619769
C           0.92012478597739    1.29245996659615    7.71196555910017
C          -0.04605161615548    2.53842178419674    4.13117891247105
C          -1.51909007875501    2.92221428886319    4.17633823526744
C          -0.31815269531328    4.57023923561996    6.73471512830535
C          -0.08846891208317    5.85302369926241    7.26858455064563
C           1.21046747892902    6.38452375662891    7.20899549723933
C           2.25412118787065    5.67003129445583    6.66247596267150
C          -1.19588801669848    6.55487282010881    7.84926369221729
C          -1.20636086070244    7.83007665404999    8.32223622393861
C          -2.35315892828671    8.43554512019365    8.86457686714534
C          -2.41545930214750    9.72672845756014    9.32511814010339
C          -3.54610072978443   10.37772627197745    9.87437647182653
C          -3.32620322564870   11.67056989430835   10.24330107800415
C          -2.00893996312641   12.11884611310302   10.00791715761002
S          -1.05057085584763   10.83531894850392    9.30091908571148
C          -1.48695798990200   13.37320228121620   10.26736129538497
C          -2.15631191373850   14.48060515275174   10.83362271938058
C          -1.38540043781613   15.59606158792873   10.96273539934931
C          -0.05429307450375   15.44562942208818   10.50775676764317
S           0.16868283950372   13.79686009571918    9.91131274831449
C           1.00662506294086   16.31436970547781   10.47175129812065
C           1.07594792140753   17.67446999437091   10.84844626151113
C           2.32713977238488   18.39315243245774   10.79267107398936
C           2.12551334592419   19.69158558960483   11.20159786448607
C           3.01264779891600   20.78652996309532   11.32905706783834
C           2.49634973147989   21.97388064773246   11.76384982615042
C           3.10065861632533   23.25151666997737   11.99793986732420
C           2.13086462710957   24.12934522724343   12.43631005707542
C           0.88261657362962   23.42340425122496   12.48977856565491
C           1.08554321563443   22.11579070119348   12.08584200023310
C           0.20106457313250   21.02872183932142   11.96101115113577
C           0.71582401638795   19.83060005741631   11.52513346070589
C           0.10555235401833   18.56979517431897   11.29576021884393
C           2.35360791459857   25.51355712465422   12.77662222658364
C           1.42572040822604   26.36542793297416   13.20490024549953
H          13.08376797006869    3.57719246010237    8.20386817678891
H          15.04868185644076    2.16500107649604    7.82149226574453
H          14.88936126069028    0.13581063383605    6.39431887289939
H          10.89726015276586    3.00567802531030    7.17164426474765
H          10.62511805049147   -2.20516922697232    3.58050711262678
H           8.63952871508262   -0.17114493848931    4.39876367819791
H           4.90240408528735   -2.24066290729331    2.06105425587388
H           6.79083544115919    0.51001025018244    4.13786584813611
H           4.06649918317685   -0.67284063229727    3.43709319525732
H           2.20232622238595    0.33895388708738    4.34571136163637
H           4.85687261918847    4.33115973228160    5.61647280666863
H           5.95848719219969    2.38730815961662    4.62290209912797
H           0.12685025877546    0.46879153020713    5.88993942389607
H          -0.91262803579956    1.66651036318398    6.66503798765514
H           1.95196223278947    1.01937771336122    7.50196094556353
H           0.48304062332115    0.52503414429504    8.34695578571267
H           0.92011040222629    2.23328385376010    8.25825847469503
H           0.05023678464202    1.54712719389162    3.68212859560690
H           0.47943888181319    3.24555817128698    3.48363379987586
H          -2.08402072414284    2.25427129340778    4.82134738428089
H          -1.93837943183720    2.85624069192774    3.17444620117064
H          -1.64292918690951    3.94326867172911    4.52642204029074
H          -1.31089677261493    4.14981346278315    6.80248076101847
H           1.40102595885603    7.36488874581420    7.61691250460750
H           3.25123526402944    6.08476143723540    6.64810076663337
H          -2.12557952711479    5.99898831507503    7.89468339148297
H          -0.31284981861892    8.43836146357701    8.28556723902913
H          -3.26110220688880    7.84868907458969    8.92364908398484
H          -4.48766914164461    9.86747750489983    9.97781442194725
H          -4.07489192327929   12.31024458846509   10.67522658560132
H          -3.18789549670551   14.42621347506347   11.13290652145174
H          -1.74358272913438   16.51441563620208   11.38659942583425
H           1.93517083742830   15.90053119049445   10.09660670202975
H           3.26010174704737   17.95806776666829   10.48028262016829
H           4.05986390247482   20.67130853603791   11.08594570749316
H           4.14161433451747   23.47593046184086   11.85198632316249
H          -0.05658840403442   23.84733863466504   12.79456965997513
H          -0.84635935255053   21.14264354053098   12.20296078429507
H          -0.94031133125758   18.38080803768683   11.43718634610833
H           3.37626527858025   25.85155576906994   12.66067571106197
H           0.39684876113955   26.07704276208965   13.33575332437105
H           1.66584037840751   27.38745130252840   13.44196617357285
