100
 SCF done       -193.700393506857          0.000640230400
C          12.02446161741210   -8.62785993209757   -4.19636754517401
C          12.01796879405547   -9.99492182674818   -4.18103778672314
F          12.82765598916643  -10.66980152064172   -5.01776509009053
C          11.19478735558240  -10.73278984153385   -3.32000285220363
C          10.36771504639707  -10.06341038426416   -2.46119505954956
C          10.33539362104073   -8.65429670729705   -2.43320714331752
C          11.17732671630052   -7.92234473744565   -3.32022586178728
C          11.15234051527773   -6.50774896460086   -3.32065397816049
C          10.31862048628155   -5.85243300211071   -2.45694557497546
C           9.49333213387300   -6.58856724320625   -1.55826528309671
C           9.48938760866453   -7.95294162927465   -1.54410541791806
C           8.72754739644967   -5.64545968283014   -0.71830508328128
O           7.90001751088390   -5.90344484557894    0.12709492103706
C           9.23552793998001   -4.29845866315139   -1.08440239809610
C          10.04426311129894   -4.42977104014123   -2.27000294383685
C          10.27643854395919   -3.45275731931698   -3.20779462128418
C           9.68511887901111   -2.17578199134837   -3.14514734009574
N           9.17747346417702   -1.14547284017388   -3.14725854493397
C          11.05848694410740   -3.63764842748634   -4.36230195947297
N          11.72573615116821   -3.71829161340287   -5.29407476903523
C           8.96983486690428   -3.23915571427530   -0.25766475854799
C           9.64669532290836   -2.02077017525803   -0.11371760021954
S          11.25535133643442   -1.74546897944488   -0.71172332760638
C          11.33813358697511   -0.14430094745168   -0.07200747077455
C          10.14891724172738    0.17392653584751    0.61257938524157
C           9.20148571422680   -0.89132415404908    0.60387573880859
C           7.95885950581661   -0.73034715947855    1.23971445721380
C           7.68906490267381    0.45372255049349    1.86737593119001
F           6.51574709194297    0.62722223552654    2.48896038212121
C           8.62711719510113    1.51003505831130    1.87544512664616
F           8.31280666029821    2.65288820991557    2.50233479459881
C           9.83987838395015    1.38363981211248    1.25944294035722
C          12.46804198682003    0.67773303793734   -0.27503570699246
C          13.55837274824836    0.30405578351072   -0.99180617265610
C          14.67406858750367    1.15418928428158   -1.23049045472298
C          15.76709747342985    0.81079853223561   -1.94212101329474
C          15.94257233069130   -0.53040537501571   -2.58510149684083
C          16.84156779704893    1.82915460727172   -2.22256616853214
N          16.65486562045916    2.37658284396469   -3.55199723557177
C          15.85623245538476    3.44310936597049   -3.78409110281992
C          15.32069710667073    3.75994149651337   -4.98448493038386
C          14.57212376805243    4.93973400890189   -5.23153696570876
C          13.97040770186291    5.29670879209325   -6.42272693055987
C          13.31568561438164    6.52985717930501   -6.36031684224910
C          13.40145182176926    7.13233875745156   -5.10343919337183
S          14.31571895024237    6.15232904166087   -4.00219378115494
C          12.73245033792545    8.34218167181848   -4.86381141477776
C          12.11106824642946    8.97579734729582   -5.95030995208603
C          12.26730952964592    8.42596245373338   -7.33669067364869
O          12.62631026720196    7.04774876414474   -7.39405150756492
C          11.45694531268063   10.12366503163657   -5.57252203333878
C          11.56080780602685   10.41356523475634   -4.20238114758808
S          12.50264752092609    9.18264264315093   -3.37841348733248
C          10.97507842004850   11.54816307584614   -3.64422175111593
C          10.98192941090507   12.01198138578558   -2.34592874183144
C          10.34686359013893   13.22169561695707   -1.87675526509158
C           9.60138726427267   14.11624358900233   -2.60736930860259
C           9.01359438633481   15.27941670182744   -2.07137639896033
N           8.51046138986270   16.24294980822825   -1.69979248161321
C           9.30793566752878   14.01809881725883   -3.98184010858517
N           9.02173546492037   14.01719377191881   -5.09528004755677
C          10.63521829902372   13.34317224495647   -0.44883419198634
C          11.41665900958490   12.23196506567006   -0.04838416203421
C          11.65273847931071   11.36632022223301   -1.22019339587239
O          12.28805544037792   10.32383038237362   -1.22673446532791
C          11.85517843729783   12.05801337520200    1.24060791733538
C          11.50812100806753   13.03185319114910    2.18416230560804
C          10.72848266316404   14.13825366339097    1.77603296453336
C          10.28245386227645   14.31178756365598    0.47069566168611
S          10.41722696920075   15.22379596609515    3.09722997823651
C          11.32875138386982   14.19009795733940    4.16483851550958
C          11.83897365438349   13.08824424987191    3.56614593529393
Br         11.52281609008169   14.66424022774027    5.96970877809061
H          12.66814405894482   -8.09240745406763   -4.87673099956619
H          11.23134057388169  -11.81008105787084   -3.35344000877416
H           9.72432245176920  -10.61006622083632   -1.78830357508980
H          11.80058787602702   -5.97690657048240   -4.00008135253194
H           8.84734998883372   -8.49294650877367   -0.86452319863923
H           8.16697197305645   -3.41768306756804    0.45115482584765
H           7.22010465925818   -1.51460931571901    1.24027612845638
H          10.53331063814434    2.20796042063232    1.27591869323207
H          12.43098686777315    1.66784303138531    0.15724609052668
H          13.57831239836971   -0.68960237806499   -1.41759352873604
H          14.61926583998753    2.14687624636459   -0.80274586961158
H          15.14720822041418   -0.72964053113008   -3.30279094210114
H          15.91191965619014   -1.31887794110744   -1.83459435605624
H          16.89753476356391   -0.59313180962460   -3.10112099452948
H          17.83359317579751    1.36952169640850   -2.17422858763444
H          16.79888073835475    2.65251400205902   -1.50737300672117
H          16.73154984285362    1.70918473486063   -4.30786621490430
H          15.70327342726259    4.09847944584851   -2.93704988871215
H          15.45760274621735    3.09951255587462   -5.82956528294066
H          13.99889629995543    4.68951349902868   -7.30786620119516
H          13.04336923397098    9.00138228510863   -7.86995031144562
H          11.33371952595219    8.51188180888422   -7.90071736594266
H          10.91596157814937   10.76441622157478   -6.24647526676856
H          10.44021611346488   12.14858892630031   -4.36956065762511
H          12.44911460673254   11.20005655044268    1.51399453452941
H           9.69070219771047   15.17354412019940    0.21201876976308
H          12.42506503926258   12.34538487071095    4.07573377361934
