92
 SCF done       -176.480798315540          0.000934171562
C          -0.89879075895983    0.43782518760005    0.94646363543217
C          -2.06883416350550    1.05703935890625    0.60492754298194
F          -3.24069953042498    0.46592418846951    0.89856569279006
C          -2.10059187390841    2.29737460250734   -0.04735390646062
C          -0.91947044924434    2.91305148898642   -0.35501695337626
C           0.31669170177544    2.31914234718896   -0.02683475541049
C           0.32778075303290    1.05817832736203    0.63864465573984
C           1.55483761053808    0.44648347690898    0.98581318309461
C           2.73003425613057    1.07477347593973    0.67318376520369
C           2.71267381977651    2.32746404692433   -0.00657925677764
C           1.54276805521778    2.94359863859421   -0.34683795074527
C           4.09804847113080    2.76394936793057   -0.25984620077699
O           4.47715152938762    3.79711273215975   -0.75911161706800
C           4.95241221648290    1.61885279976673    0.17810540802433
C           4.11793935606586    0.70498687858421    0.92887872948855
C           4.54173354874753   -0.19234008524158    1.87115441846394
C           5.88767760029012   -0.33308555671714    2.26427453570691
N           6.96713045708421   -0.46530310363055    2.63190024443787
C           3.68003673646939   -1.04308154342036    2.59221523488990
N           3.03143623814532   -1.77914829869881    3.18816796086221
C           6.23301911838997    1.55519981826219   -0.26153797255499
C           7.14038424621849    0.44991006932301   -0.29894506422678
C           8.51575863649764    0.66846791317127   -0.36913224472376
N           9.45815848427973   -0.25999762516354   -0.41735473824978
C           9.15334609734129   -1.54662419834735   -0.40609477001891
C           7.77937162328804   -1.92355000375601   -0.36908099299020
C           6.75966697284087   -0.91624631919588   -0.32888559887771
N           5.53711263351501   -1.44755902060774   -0.36275202184361
S           5.66867538845857   -3.05067911649200   -0.41346557597862
N           7.26908185242941   -3.15285872022318   -0.41385376434898
C          10.14296390762416   -2.58737990691575   -0.46139856093894
C          11.48076351985756   -2.46171775065688   -0.53880364377689
C          12.21680226423601   -1.17132294136671   -0.56196453913663
C          12.35306880931566   -3.68476849240570   -0.61973985315603
N          11.69764126605491   -4.79172086555069   -1.27561670362993
C          12.25750426742418   -5.99681407337963   -1.44473003163424
C          13.33961983374189   -6.48742020174507   -0.77242311004144
C          13.97587147560275   -7.71317691655211   -1.09806218726493
C          14.67673643117842   -8.45173161228014   -0.07017083048813
C          14.93033883987872   -8.10736900806361    1.20956508915628
S          15.70473243179152   -9.45656947104519    2.15838652346080
F          16.76960245802960  -10.75255227221654    3.00108454695696
C          15.83604385033208  -10.37014775405518    0.66114002504381
C          15.22764396796903   -9.76967968404995   -0.38427821933319
C          15.10786145672986  -10.27362205749271   -1.71468177116533
C          14.49435311815627   -9.53750807683728   -2.66476192007696
C          13.93275688909981   -8.24394907526193   -2.39694445968312
C          13.47655613706430   -7.41631685967679   -3.46307177890140
C          12.90445924151732   -7.75838526611176   -4.66074151933982
C          12.64440413009437   -6.84113741153419   -5.74842792119976
C          12.72366981115842   -5.46660778154774   -5.72129625482628
C          12.46768727391905   -4.63851994828747   -6.83277396750933
N          12.28031826950571   -3.90467209148431   -7.69615686271893
C          12.96585863090861   -4.68059311332850   -4.58249900163688
N          13.07712598270384   -3.96506483858502   -3.68685226086413
C          12.17129490446651   -7.62313955065997   -6.88623753201300
C          11.98219322712839   -8.96134035103045   -6.46462104850679
C          12.37759858604193   -9.08648335465043   -5.04450834068768
O          12.23048660610059  -10.06594637642878   -4.34374603253806
C          11.49790605785294   -9.93950882238993   -7.29651562794415
C          11.19996764780289   -9.58387929550230   -8.61701439306691
C          11.40670327944335   -8.24821615969240   -9.03420659107598
C          11.88623287188084   -7.25570475095953   -8.18776075324221
S          10.97864614300737   -8.02680981199366  -10.70415458865582
C          10.53031901140828   -9.70795576907807  -10.81556837528092
C          10.69413725408290  -10.40160716352788   -9.66409433867016
Br          9.88668402725915  -10.38815243435940  -12.44114430632100
H          -0.91271877250376   -0.51548347092573    1.45127543779537
H          -3.05420742117633    2.73768218444937   -0.29183469654745
H          -0.91821439996241    3.86858905264543   -0.85746975987780
H           1.53554708780608   -0.51114334667010    1.48166427707923
H           1.55203125998702    3.89595027182378   -0.85552212075039
H           6.60602875951425    2.47373929164769   -0.70614616260578
H           8.88931665875065    1.68450014922822   -0.35990193376606
H           9.70263243097901   -3.57539885925453   -0.42195076752997
H          12.52205206329213   -0.95410613257688   -1.58602351090607
H          13.11958340799711   -1.23954193425470    0.04246946477467
H          11.58476226388879   -0.36170963545644   -0.21381310679331
H          12.62823483934334   -3.98793633914275    0.39860686983787
H          13.27712893804760   -3.43397011513287   -1.15654506331541
H          10.94860320945428   -4.53291274612019   -1.89866866193309
H          11.73030286462606   -6.64737542899955   -2.13116910774895
H          13.72060101520627   -5.94375073671712    0.07825199272524
H          14.60932738147897   -7.21496057140959    1.71245679381788
H          16.87622790659706   -8.78794041364035    2.16850299787020
H          16.29932354970526  -11.33433902136627    0.70837018120135
H          15.53535271746228  -11.23719109975101   -1.94254745876114
H          14.45086597063353   -9.90597790659055   -3.67547898050381
H          13.66655507034481   -6.35942169736154   -3.30747725221513
H          11.35390962346644  -10.94803875535969   -6.94177105355370
H          12.02477313257960   -6.25224266409939   -8.55386176033154
H          10.46699593484468  -11.44639989145010   -9.55544710030543
