105
 SCF done       -199.691677887920          0.000664248799
C           9.48306194190751  -11.83942237673018   -6.03553670643539
C           9.11769389541541  -13.03923557877570   -6.57975528264351
F           8.22534912643335  -13.81391091302298   -5.93630133466058
C           9.63908990979361  -13.50356870762592   -7.79491480590377
C          10.54794380282646  -12.73083581251783   -8.46287840476385
C          10.96085695164812  -11.48555615658337   -7.94697917772430
C          10.41595094179126  -11.02934363730827   -6.71142884318147
C          10.80512850155314   -9.77747301329503   -6.17942361278402
C          11.71149016877236   -9.01170227498715   -6.86122441970350
C          12.26953805185590   -9.48370654259514   -8.08385290754865
C          11.90609732866186  -10.68270889318588   -8.62433935978800
C          13.24574878925018   -8.49699582698351   -8.58513975276983
O          13.87510850583815   -8.53282995080475   -9.61636407262954
C          13.33385425598108   -7.45574151017562   -7.52249550362891
C          12.26550909181840   -7.68846444818626   -6.57914161140235
C          11.70369288183031   -6.76993175648865   -5.72633308168970
C          12.08781789285087   -5.41883774412808   -5.64503978782189
N          12.32779194768241   -4.29867506026874   -5.56071298785950
C          10.60057632205138   -7.04447678028984   -4.89284726731480
N           9.71685354532142   -7.21573720379520   -4.18031299010287
C          14.34112263603908   -6.53471962974709   -7.58100344560797
C          14.84415922200563   -5.68439746912076   -6.57802218443872
S          15.62561998837409   -4.21715316367818   -7.05265888599116
C          15.90831153557834   -3.71137133672827   -5.43461295253969
C          15.44795379601961   -4.68097232640398   -4.52456814836359
C          14.86943456228972   -5.81317067377678   -5.17661300131538
C          14.49837185527379   -6.94105104746976   -4.42310296013338
C          14.63522627758820   -6.90689720478948   -3.06399420754643
F          14.30319525870854   -7.98180228930937   -2.33325107965938
C          15.15891618675338   -5.77061525396174   -2.41440049462085
F          15.29469392393118   -5.78579534325938   -1.07618849142366
C          15.58221536719729   -4.68302851974379   -3.12428525526714
C          16.62392387977510   -2.50280382450939   -5.21603620229232
C          16.59293161067605   -1.72640408051395   -4.11047379457241
C          17.51891081475352   -0.65703437115736   -3.90732189048379
C          17.50612031764913    0.18226372879869   -2.85716108004548
C          16.41954287162757    0.19288973315358   -1.82382733780026
C          18.65567506586805    1.12111767767229   -2.60783252998648
N          19.29878814760740    0.78259111064639   -1.35027259861152
C          19.34502700429691   -0.46302475161435   -0.86744246323932
C          19.76706037929545   -0.79613794747121    0.38923352509996
C          19.71737593233432   -2.07915767455098    0.95412519760689
C          19.33973147040732   -3.28939030981515    0.41522471222232
C          19.22522403367120   -4.48691804128379    1.15915959712636
C          18.84359992531110   -5.57820149954992    0.43625540912596
C          18.66628709058774   -5.31485641435853   -0.93658748050572
S          18.94139219691709   -3.62652967923298   -1.26961485520922
C          18.36073000313259   -6.22387882802337   -1.93828936963468
C          18.02754590763428   -7.58353994320185   -1.81694037866147
C          17.83604306694508   -8.20734839684586   -3.01757493346469
C          18.04795407541341   -7.38846307014707   -4.14801254413085
S          18.43704598724694   -5.77285569116780   -3.62871972705101
C          17.88406604082104   -7.81170653621219   -5.46431301015945
C          18.07709621621531   -7.14436609521968   -6.66090480663786
C          18.68743039472740   -5.92899201651483   -6.95577685969711
C          18.25499272366666   -5.19356936242403   -8.15853095263180
O          17.56317706187958   -5.60360097617602   -9.06876469130271
C          18.77735488299667   -3.81464057201929   -7.98038673581079
C          18.50399725833723   -2.68509056806581   -8.69255634720304
C          19.02282901430217   -1.44692242156744   -8.24062821936178
C          19.83507379539530   -1.41581247470527   -7.07102482060609
C          20.31479609351875   -0.17682114665463   -6.60404242623270
C          19.99925305808866    0.97885350028307   -7.26238387105279
C          19.20428477750273    0.94704110043239   -8.42215184502484
C          18.72889913252214   -0.24127727947077   -8.90457571532779
F          18.91047852919998    2.09690883276981   -9.04971648329563
F          20.44131033308593    2.15893478432390   -6.79207794973116
C          20.12979391434324   -2.61195621182747   -6.37348097587638
C          19.59927582850596   -3.78913405512365   -6.81932080490967
C          19.66231439443232   -5.14474224373976   -6.27599700393538
C          20.61474309167967   -5.59650136530301   -5.38163561814564
C          20.79930766521151   -6.96107969145477   -5.09567666022078
N          20.97842383080378   -8.06961790793098   -4.85421353562522
C          21.53534977537439   -4.75981755549072   -4.73051798658729
N          22.27782856000777   -4.10727596919465   -4.14327253888438
H           9.05807560473915  -11.51188245508253   -5.09960617090663
H           9.31327775569426  -14.45861333419180   -8.17541468928217
H          10.96457198394408  -13.06730316754534   -9.40030999672995
H          10.38235216514347   -9.46129425105215   -5.23901619879893
H          12.33448138141407  -11.01539840368420   -9.55785040695380
H          14.85004717211794   -6.47669536544865   -8.54031180078477
H          14.14830617691238   -7.84205829626751   -4.89874346372735
H          16.05242691602982   -3.86564400163712   -2.60534356240530
H          17.24872590939798   -2.18899695380583   -6.04311768928751
H          15.87558306675984   -1.92290263152357   -3.33014065495797
H          18.31553829052780   -0.57861245976454   -4.63600095724877
H          16.39171398808995   -0.74497603225128   -1.26917076406512
H          15.44864517440394    0.32652657276322   -2.29735090422688
H          16.56913849696914    1.00006939625659   -1.11179689482885
H          18.29822388506494    2.15288896551451   -2.53701057595092
H          19.37921057927831    1.06807846255048   -3.43023127748610
H          19.65753801696944    1.53456448139554   -0.78080860476513
H          18.98095615859653   -1.22311043112995   -1.54183435912395
H          20.11829814664657   -0.00227091799182    1.03535668714796
H          19.99252157210826   -2.13269287573706    2.00083679697047
H          19.42661229697220   -4.50663080172886    2.21592707034840
H          18.71196437439774   -6.56242832923889    0.84611630794389
H          17.92619616395438   -8.06633852966303   -0.86224391185317
H          17.57540300079074   -9.24514236491105   -3.12301897654878
H          17.47692359422354   -8.81239056741065   -5.54703587071476
H          17.60191186366080   -7.59822495888559   -7.52608370113209
H          17.88278225194832   -2.72481677267145   -9.57405458062630
H          20.93981731752536   -0.13924772847075   -5.72480256563542
H          18.12008770727050   -0.24884877915239   -9.79496159358701
H          20.74340837113004   -2.56267051973715   -5.48831507153728
