95
 SCF done       -179.841476330027          0.000422796879
C           2.41708181177525    3.14247682827848   -8.42073455609665
C           1.33792677345715    3.95988543734182   -8.61078204549915
F           1.10140457393487    4.47116616845859   -9.83225782898577
C           0.45608097491681    4.29370238356214   -7.57365477451735
C           0.68070222312529    3.78496517451221   -6.32472341323850
C           1.77892783382680    2.93741741769100   -6.07191144180172
C           2.66302147121140    2.60821854036615   -7.14086968696290
C           3.76647020409074    1.75328307928383   -6.91494493322796
C           3.97856270607539    1.24783715302162   -5.66066664080329
C           3.10066460718159    1.59310145343510   -4.59213062410315
C           2.02433790246963    2.41106020706632   -4.78387816365316
C           3.57137599403184    0.95451760789129   -3.34884292979673
O           3.05514784155347    0.97524754490397   -2.25597715340974
C           4.87361404157848    0.31800178123372   -3.70800602082761
C           4.99495109075023    0.33450827954620   -5.15094017205043
C           5.76333296064557   -0.50270139256409   -5.91420648244415
C           6.55362499869089   -1.54468174829419   -5.39005009695335
N           7.19783464090103   -2.41864634743505   -5.01634102206278
C           5.82456255417216   -0.45069312109215   -7.32158591939384
N           5.94181608256720   -0.42962197693753   -8.46332228416607
C           5.73131849707600   -0.04005191512890   -2.72149069743735
C           7.13053583409979   -0.33111784683465   -2.80877800090213
C           7.75155056798053   -1.16788523055940   -1.88384681562235
N           9.02149870991219   -1.54588417694832   -1.89899511430636
C           9.85229904466626   -1.10305863047699   -2.82753717645280
C           9.37800907240657   -0.17293639485310   -3.79458101697720
C           7.99731879600169    0.21393346694201   -3.79053222213426
N           7.72635035991023    1.09926078353717   -4.74921407782912
S           9.07589926378009    1.39559078598944   -5.57706528108201
N          10.06600430498539    0.43054177499071   -4.76152502241695
C          11.22183965972013   -1.53587960858016   -2.89318887832894
C          11.79616516949124   -2.49433342730038   -2.14707566770881
C          11.08489185495712   -3.28155452124425   -1.10334775709894
C          13.24821612923568   -2.84051824119559   -2.36967131852228
N          13.38849276586632   -4.20966276234985   -2.79734284974010
C          14.11070983766285   -5.14574815107672   -2.17027780894141
C          14.19233005683966   -6.45102784063538   -2.56315842584627
C          15.00735809164501   -7.38907079583933   -1.91846363450469
C          15.13941626236010   -8.70390444153083   -2.29768102230348
C          15.96905798572296   -9.68468220158782   -1.71137922661316
C          15.90308090725186  -10.90674932545986   -2.31473127833278
C          15.00981865201456  -10.95532720558403   -3.40559102935336
S          14.25920959099541   -9.40454641352141   -3.65191625785525
C          14.71006316656458  -12.04516712726868   -4.21263920643903
C          15.24735550626957  -13.34294051022527   -4.15322553072412
C          14.73034537582885  -14.19384410351574   -5.09168365419064
C          13.75954985416047  -13.60774842844591   -5.92782147063458
S          13.52733618588262  -11.93064833504862   -5.49800401124919
C          13.05517195818037  -14.23369190923641   -6.94553508421170
C          12.09166886072025  -13.58901245783555   -7.70363174082494
C          11.34347262369597  -14.17761508094354   -8.71118561227624
C          10.32375173553989  -13.54502673776898   -9.49987654043136
C           9.90391913189664  -12.23353753285841   -9.43345269591369
C           8.89021735206598  -11.68720586082622  -10.24252037749840
N           8.07109628049717  -11.17861967966597  -10.86857790074912
C          10.41217037837986  -11.24733139796023   -8.56704816434534
N          10.76398903546819  -10.37697035327700   -7.90260307233536
C           9.78317799109534  -14.54867791692612  -10.41782070734693
C          10.46624085063383  -15.76949585596418  -10.20357587322678
C          11.46787539114446  -15.58218008119769   -9.12944108061524
O          12.22276513900867  -16.43640384133625   -8.70145136090508
C          10.18773356378686  -16.91000098986549  -10.91357443901556
C           9.18125703477266  -16.84522478586241  -11.88447322672543
C           8.50321470061358  -15.62311171766251  -12.08993698867643
C           8.78752691798126  -14.46701137651003  -11.37122995492604
S           7.29487135555047  -15.76341500944526  -13.33281326828957
C           7.71467294382734  -17.44105761332401  -13.55444994850997
C           8.70633137041631  -17.87563984014928  -12.74266402902132
Br          6.80185388724659  -18.46200813928120  -14.83801027260982
H           3.07302376375124    2.90332420505451   -9.24314960199340
H          -0.37880326465443    4.94330526900209   -7.78348221559887
H           0.01504949494877    4.02799723924773   -5.51023582511664
H           4.42405596576570    1.52660357164207   -7.73904539598400
H           1.36712918821082    2.65480917781003   -3.96256577294076
H           5.30628227185801   -0.05899358660087   -1.72232207545392
H           7.16238051703043   -1.60577294643301   -1.08825849274973
H          11.80111543198054   -1.02143683191230   -3.64810243372429
H          11.66873521574028   -4.14510357435955   -0.79310243460062
H          10.89110848860814   -2.65236325539086   -0.23562329508572
H          10.11175511749638   -3.60102732528543   -1.46890356716593
H          13.80516755177041   -2.71387573621648   -1.43639913469271
H          13.68127625652028   -2.17372165816005   -3.12467896253009
H          12.83717902132685   -4.48991111659912   -3.59618409581877
H          14.67310594641692   -4.80369620602567   -1.31059957998054
H          13.62071540525431   -6.78236992007019   -3.41925684877018
H          15.58956319277488   -7.06153928392596   -1.06641239748120
H          16.59271533739719   -9.45921262152138   -0.86405821048462
H          16.46649904528222  -11.76718849097112   -2.00237140702524
H          15.99517238011192  -13.62194682336784   -3.43259914396033
H          15.01613377458967  -15.22462688917010   -5.20269467201537
H          13.26875778895020  -15.27476479279770   -7.13905096078615
H          11.90876259479342  -12.54564874130521   -7.47697130942316
H          10.72721555901110  -17.82538953828378  -10.72682857382473
H           8.24015496634635  -13.56044002856499  -11.56717496708413
H           9.08891769642423  -18.88003556420206  -12.74611564439917
