96
 SCF done       -180.414761561549          0.000858556711
C          16.47779548791761   -7.24122537803340    4.66450555289826
C          17.60331402485249   -7.87714462446708    4.22030892156338
F          18.71367280333113   -7.86391301116389    4.97865581741631
C          17.65128006771931   -8.55067925286900    2.99156630343446
C          16.53306648542151   -8.57340160504383    2.20582100170573
C          15.34504386962697   -7.93152794685208    2.61315454379564
C          15.31582381065059   -7.25384423265121    3.86791413112374
C          14.13521994199835   -6.60733420752525    4.29948084768266
C          13.02520888368153   -6.63135461239383    3.49758787270722
C          13.06378540955894   -7.29888614394117    2.23841655270571
C          14.18823267261070   -7.94037795958671    1.80287771200283
C          11.76324121380503   -7.14441727271687    1.55813558568533
O          11.40939167966520   -7.62351604878806    0.50912889113113
C          10.98887607963091   -6.19646336805035    2.42184627431671
C          11.68927481666674   -6.08428705548116    3.69233007539423
C          11.13135364085582   -5.72793258032968    4.88364000003089
C           9.75145083187060   -5.48469778557036    5.06828959803707
N           8.64680987297640   -5.39667354318816    5.37195370223103
C          11.83384925949354   -5.63905419790040    6.10237325218142
N          12.34570037446844   -5.51228627669035    7.12247101729169
C           9.96699145258609   -5.48913215097315    1.90035735249972
C           9.35288336542431   -4.28177726235857    2.42222108592441
N           8.28253463566638   -3.84576673085331    1.76048624328985
C           7.73281516906237   -2.72241275723616    2.19209104266944
C           8.26054186846242   -1.98811635695699    3.23782666375499
C           9.40015937274009   -2.50928129190021    3.87496717400989
N           9.91499806474884   -3.67185716615806    3.45783987854411
C          10.07005840939402   -1.89680096906817    4.98870672872840
C           9.79210052599190   -0.67121269572676    5.49772687016800
C          10.45793161196323   -0.10857161627385    6.60415014459368
C          10.17062261238336    1.12945358639399    7.11346578872207
C          10.77314453941527    1.76209515943402    8.23385417830960
C          10.27945457379271    2.99644200846191    8.51540862814962
C           9.24807352764382    3.41862674710472    7.64204469513826
S           8.93810923048131    2.18218205348389    6.43591410320375
C           8.53838266967407    4.59552675091575    7.63834622574609
C           8.72695838330996    5.74167461375403    8.45299386445485
C           7.88590276701936    6.76211542963452    8.15189263174316
C           6.96521069165562    6.47187905766375    7.10221331705204
S           7.20454912482145    4.84513436668013    6.51868636571461
C           6.02152557615922    7.28135853347724    6.55354973743389
C           5.13316525869808    6.80156946889405    5.53724801194598
N           4.28817323249863    7.67568905753927    4.97466563390533
C           3.47177694838961    7.20584827848226    4.05574183917911
C           3.43393486822493    5.86314489048386    3.70097371319796
C           4.32701031863347    5.00806687829350    4.35828174927294
N           5.19294473372792    5.50270264618968    5.24209805410970
C           4.27677816898836    3.57299078381605    4.15396137813012
C           5.02444915228471    2.73517553821274    4.89505795390525
C           4.97257294238625    1.31306170316550    4.87817509059706
C           5.46153274957920    0.53080207697591    5.87485916745951
C           5.75830605527139   -0.91635149772886    5.66148222834194
O           5.35198026500139   -1.60692185257339    4.75600408170487
C           6.71685159991497   -1.26904464083138    6.72567627567971
C           7.41140858448369   -2.43151235106699    6.91034363582937
C           8.34034621575503   -2.51470721721305    7.97187697207310
C           8.52339214018835   -1.39634903485968    8.83581185157258
C           9.48114288387889   -1.47511742288285    9.86475878602466
C          10.22180227145484   -2.61590857833333   10.00563795651831
C          10.05244945139199   -3.73018706984104    9.17225564626778
C           9.11344516154925   -3.67501189415591    8.17971474152631
F          11.15070713109002   -2.67966783680227   10.97677664873923
C           7.76460319447476   -0.22042157493875    8.64478599363212
C           6.88509505676136   -0.15254854546844    7.59885795545466
C           6.00162886123640    0.92149748551790    7.16319440451900
C           5.63228860184392    2.01244153333488    7.90457262608563
C           4.51865034083858    2.83215972000484    7.61399283734586
N           3.57573151185553    3.47267775571132    7.48382692090695
C           6.27470577864943    2.40112752397785    9.09737915689129
N           6.80867128936399    2.79713441708329   10.03360766363293
H          16.47674315627135   -6.73523267184390    5.61728337467133
H          18.56792605075209   -9.03449503273781    2.69380912890987
H          16.54566258792977   -9.08520583230186    1.25538746925332
H          14.13830516299818   -6.09605440848028    5.24963719786141
H          14.19626062359889   -8.44603038768490    0.84893705786880
H           9.60473394223650   -5.78649304788131    0.92350793243865
H           6.84178211731333   -2.40140928074133    1.66943147778359
H           7.79998933026995   -1.06969718104083    3.55722407593366
H          10.86158533899865   -2.48801237556382    5.42946873153343
H           9.02000292571568   -0.06074104847719    5.04627340684955
H          11.23422473965389   -0.68723023589686    7.08605135857533
H          11.55312673207020    1.27325162854993    8.79054693956149
H          10.61145400506726    3.61313989592557    9.33096676352415
H           9.48216952971681    5.78266417025520    9.21761601735863
H           7.87924890353225    7.71872043018702    8.64376192754269
H           5.90398780229006    8.30297549470387    6.87598187718149
H           2.80988258954362    7.93000915864481    3.59745519933118
H           2.73509355311991    5.49018007043228    2.97054460830928
H           3.53607790688603    3.20632168442957    3.45668820008246
H           5.72731241925873    3.18572869112378    5.57859060958093
H           4.57503095258451    0.80962298984246    4.00411402022477
H           7.27542896008772   -3.27509944452854    6.24972709532920
H           9.63042649135595   -0.63877503859193   10.53006323504220
H          10.66741676512616   -4.60275491921084    9.32472385636004
H           8.95334105348002   -4.52022749655839    7.52918168329024
H           7.91874219196689    0.61166173986437    9.31384740767372
