106
 SCF done       -199.999522608721          0.000300106613
C           1.82391858259186   -5.05140380449413    3.88627565264631
C           0.67433701873662   -5.75390833654119    3.65238765315874
F          -0.23023300277637   -5.89055809938864    4.63823837383433
C           0.39403964905174   -6.34548303703889    2.41324695164785
C           1.30206390527122   -6.21845494775808    1.39894372743505
C           2.50387095564149   -5.50544636854158    1.58514077783887
C           2.76837605997340   -4.90780196403617    2.85185926329610
C           3.96165507958126   -4.17633129018360    3.05952445568648
C           4.85865625702765   -4.05302419257756    2.03402551602095
C           4.59966522568308   -4.67183703177935    0.77678180207329
C           3.45305991208244   -5.37499187740302    0.54623817911513
C           5.73900557990074   -4.42746448225775   -0.12729014157762
O           5.85790803293906   -4.75729057654788   -1.28592979355295
C           6.75654727543817   -3.72720226383429    0.70318095054122
C           6.13414506794642   -3.34478037643101    1.94692243994262
C           6.53259918798098   -2.33365576770361    2.78755449955381
C           7.62768228590267   -1.48833536501479    2.53310168782087
N           8.48696780378471   -0.74999781736482    2.34349054049646
C           5.83464092520784   -1.96008980974535    3.95339902469657
N           5.31616282171878   -1.62563859987236    4.92131260564438
C           8.02725934581377   -3.59415075496148    0.21358834241753
C           9.22747511310583   -3.30541808060770    0.88434820592060
S          10.52652521980705   -2.57651420107967   -0.00867816466927
C          11.53590077648449   -2.42000094683692    1.37968321182946
C          10.91290711690804   -2.99027784672736    2.50696419000227
C           9.61487887841812   -3.50927956826990    2.22202628236659
C           8.90893026496338   -4.20715761678339    3.21831702644387
C           9.45144799905053   -4.30341455476528    4.46918259184559
F           8.79397703374562   -4.96957778075767    5.42763747331890
C          10.70452296960939   -3.72691468294772    4.76963211792175
F          11.19115462254531   -3.83886654200542    6.01394185370692
C          11.43865774534468   -3.09470311361225    3.80612591450447
C          12.79693003846318   -1.78262429613566    1.33088106914509
C          13.38231416140741   -1.31798301768806    0.19980911170075
C          14.65267982141843   -0.67239449221439    0.19963342337402
C          15.33867095321702   -0.23067195841397   -0.87262979611413
C          14.92358940926063   -0.37445304281922   -2.29678723421504
C          16.70451696550033    0.38598552726153   -0.67387472684213
N          17.72613674797596   -0.63230884788691   -0.79844265717952
C          18.29620070198468   -0.95846197097520   -1.97360237972384
C          18.99938612060922   -2.10007662093882   -2.18790262122972
C          19.66168889555206   -2.41133179853107   -3.39660831427512
S          20.58411496600136   -3.87961918933237   -3.53123672157370
C          21.06439744871985   -3.56989980034657   -5.18997121631546
C          20.50432392878856   -2.35087616313364   -5.61339909540605
C          19.72866184930227   -1.72563594364409   -4.60271974460324
S          19.03492510504660   -0.23055087225877   -5.14004348368549
C          19.78633246314782   -0.44195112717846   -6.70643458067463
C          19.53882973259253    0.61776855457750   -7.68756886169284
O          18.83984470164179    1.56591086799388   -7.40206395605787
C          20.20212017642472    0.43842825276664   -9.03392655878510
C          19.90020764661725    1.60080678176104   -9.96921421632589
C          20.51896897022082   -1.59039889611352   -6.80513542983710
C          21.88794900995086   -4.49568357229026   -5.83444559970641
C          22.36592795671170   -4.38400821606189   -7.11549334892837
C          23.20211995728021   -5.34251756138484   -7.69344081061596
C          23.70787147954109   -5.25157169173726   -8.97271600158236
C          24.58670623681835   -6.19431796678176   -9.62268146255408
C          25.08801297723427   -7.36329354853863   -9.10095527699503
C          25.94828605315075   -8.23599253728280   -9.79661188091574
N          26.65140178193210   -8.98898023521627  -10.30484613653356
C          24.82779960097027   -7.86687951991221   -7.81107509377570
N          24.66798176795920   -8.34986915600756   -6.78050276174829
C          24.86901899879551   -5.68778281405670  -10.96414494007924
C          24.18025759318700   -4.46351382645548  -11.14023402301160
C          23.43081718218476   -4.14504920331151   -9.90779296699649
O          22.73452022222344   -3.15996111435931   -9.73303512550499
C          24.24538877999850   -3.73650957310998  -12.30310311168327
C          25.03008270967679   -4.24120005951674  -13.34579780028720
C          25.71480003232432   -5.46438307810903  -13.16105901068256
C          25.64787216420260   -6.20033991852435  -11.98369184458226
S          26.62705278447373   -5.90612509385263  -14.57307895357401
C          26.08250942002270   -4.45995271915328  -15.38074850389730
C          25.26051441892577   -3.68538180189278  -14.63432592531805
Br         26.65101372482498   -4.10885701755369  -17.13400028116229
H           2.00537495275224   -4.60635808507810    4.85208043402866
H          -0.52981321362878   -6.88735898077325    2.28717963636370
H           1.10868377201743   -6.66603614491928    0.43570905647478
H           4.13988222247669   -3.74068220807237    4.02987443840408
H           3.27143052579158   -5.82760938178907   -0.41699275799247
H           8.11168866301949   -3.76578814261942   -0.85624323199010
H           7.97085281013369   -4.69306191519233    3.00750901594368
H          12.40814030275760   -2.69674020191064    4.05578887417673
H          13.31164740309380   -1.67078402858041    2.27525147025748
H          12.86132318111977   -1.44318886674018   -0.73860852588944
H          15.09151248363549   -0.52077363179539    1.17932592336147
H          14.00771846868865   -0.94401685049553   -2.40798085789037
H          15.71262071589860   -0.87104959886773   -2.86335296987464
H          14.77689265700632    0.61071411703960   -2.74035201369050
H          16.78665195313694    0.83565769131294    0.31918079566682
H          16.89416856535145    1.15275898909963   -1.42766263698779
H          17.72067822050721   -1.34541911265348   -0.08177020501851
H          18.21214906476460   -0.21205355146289   -2.75057043433574
H          19.08539188630196   -2.82931348879988   -1.39444329863410
H          19.85115247234980   -0.50208982104081   -9.46596085168244
H          21.27924066956416    0.34151458072336   -8.87779075950955
H          18.82770810832312    1.69227189155756  -10.12169034104374
H          20.38197587827588    1.44756472123778  -10.93116189603106
H          20.25902678349510    2.53257854290020   -9.53911440049758
H          21.03986940759735   -1.86581092728701   -7.70245446169197
H          22.16876609981142   -5.36715575723542   -5.25452690106588
H          22.10639453556616   -3.53006337242845   -7.71495962506403
H          23.46508786806918   -6.20011576510758   -7.08852718338002
H          23.70856303691907   -2.80649561514019  -12.40684259445684
H          26.18930366004394   -7.12697579441489  -11.89427201887478
H          24.83355547851432   -2.76022931558622  -14.97618604024318
