106
 SCF done       -211.272189652462          0.000914104929
C           1.96323131176994   -0.94339019262997   -6.61665216288257
C           0.64099436435856   -0.85226965644964   -6.95281500714425
F          -0.03123639998873   -1.96359233518570   -7.30569564451582
C          -0.05399213397002    0.36426068159810   -6.94582153682506
C           0.61202869778163    1.50443320313179   -6.59020979486450
C           1.97553583099694    1.46834944083290   -6.23495464219817
C           2.66472504432152    0.22114858901490   -6.25038107628672
C           4.03613519908544    0.16012498000695   -5.90602482518069
C           4.69016042395594    1.30914331530544   -5.55620719606805
C           3.99157147292307    2.55047535087489   -5.52401999211237
C           2.67198835858271    2.63971418110440   -5.85866894562217
C           4.91230738635245    3.61119472710447   -5.07067967419515
O           4.68927854607294    4.79746521613642   -4.96555286266878
C           6.17188026172658    2.91064799540375   -4.71200330915044
C           6.08214283503877    1.55261187872963   -5.18016290934762
C           7.13016123525263    0.70259041618985   -5.44805654590674
C           8.48382058423914    1.05812753492760   -5.31280986031583
N           9.60198043617011    1.31640926485481   -5.25686966520719
C           6.97296638119282   -0.58788101223818   -5.99052339394887
N           6.90121483160574   -1.64646332044040   -6.42935294025818
C           7.14459144207288    3.59944716488404   -4.02807540215654
C           8.21217366617744    3.11672934539197   -3.26453101116924
S           9.60669197035733    4.12282745303182   -3.02464116712888
C          10.49760123494669    2.87966986516075   -2.20103913619421
C           9.66201888357621    1.75100440558535   -1.97552296006664
C           8.38045749332855    1.88847439554955   -2.58192919290355
C           7.39896965763346    0.90526803359560   -2.38658998324767
C           7.70528045343745   -0.20556581544286   -1.64584028443234
F           6.77212500558479   -1.14548226088915   -1.44451975917572
C           8.97241206382161   -0.34904911194324   -1.05570126596786
F           9.22960697393424   -1.42797898712195   -0.30172481309347
C           9.93296480674871    0.62020614142066   -1.19408957928960
C          11.84528852425784    3.10713008444919   -1.92411036887471
C          12.78269998749403    2.14852565843581   -1.59860296010047
C          14.11449854354563    2.41719295577615   -1.31967227533768
C          15.03705572642093    1.42089687012204   -1.03259195777102
C          16.40656944741282    1.56076966799533   -0.74643134683746
C          17.05383972416598    0.37492238611187   -0.51035251572935
C          16.21792726331606   -0.74893694750395   -0.60040302627828
S          14.58712797055536   -0.26985087065741   -0.98439074801626
C          16.53950119023366   -2.09603808352484   -0.44623115449690
C          17.78313896512078   -2.68861328549905   -0.18242909954519
C          17.73480733383795   -4.05649125663468   -0.13052154418077
C          16.45709578903017   -4.60885998475871   -0.36076876795471
S          15.30786502569137   -3.31843223262068   -0.61921052161057
C          16.18005293075538   -5.96586234938213   -0.27210915687105
C          15.01573875804387   -6.70472415237373   -0.44778697001687
S          15.01827018256406   -8.29657217855385    0.27570421474507
C          13.35300519300592   -8.59510909785788   -0.10500557268514
C          12.82097456550418   -7.50848089360069   -0.84297583415439
C          13.75913218372537   -6.46235365260717   -1.07274929174111
C          13.40551911442100   -5.40705711570192   -1.92204074587140
C          12.13634162093565   -5.35080226973506   -2.43814454542415
F          11.80162899213929   -4.33961190253581   -3.25070092917427
C          11.18701704044091   -6.34530135931858   -2.14369540849660
F           9.95371874556379   -6.25296015706491   -2.65534852785831
C          11.52414062965522   -7.42396859226959   -1.36925952050636
C          12.69605108905500   -9.75766367143032    0.29791310382522
C          13.29619124228617  -10.78492790349234    0.98325412036599
C          12.59891404504586  -11.92099396549001    1.40341466529919
C          13.07413181877080  -12.96897999443750    2.15342751652915
C          12.33388164648995  -14.25479773392480    2.14892224802992
O          11.21203290369107  -14.44430914842886    1.73173835749276
C          13.27340630367995  -15.24796616719967    2.70505500219831
C          13.12677591509225  -16.59939919868035    2.81982243408232
C          14.18807301823090  -17.36509858999198    3.35364393317440
C          15.38722879747226  -16.70854563154123    3.75504180846598
C          16.44490978003666  -17.47750176520660    4.27745989264381
C          16.29808408224368  -18.83212602272846    4.39012154999995
C          15.12674347416697  -19.49604027266501    4.00259976104064
C          14.09024782243915  -18.76438408013097    3.49252668406335
F          17.30856174052937  -19.56857854163469    4.88930800294326
C          15.50727146010281  -15.30382320518501    3.63126103413374
C          14.46333007690008  -14.58305613118564    3.11942916829596
C          14.29075245376107  -13.14566521905336    2.90259442514011
C          15.05441010118902  -12.16765454004312    3.49467533611457
C          14.72811793586028  -10.79712551875739    3.52688006362654
N          14.50172183002673   -9.67595819997326    3.63529136505240
C          16.21896389088728  -12.42875947200084    4.24360881647900
N          17.18830522934463  -12.57255356395584    4.84298815417646
H           2.46769690397417   -1.89678199796361   -6.63542466698102
H          -1.09694514774311    0.37491345179079   -7.22007822178534
H           0.09761274697813    2.45358147813595   -6.57670122043285
H           4.53069553940437   -0.79809383826980   -5.91771938244508
H           2.16296198539686    3.59159512972030   -5.83563355660003
H           7.03934165311972    4.67996724635078   -4.07271387891069
H           6.39930026495883    1.02553764534962   -2.76941457963185
H          10.85942201336622    0.50200854465098   -0.65965511293307
H          12.18894363034608    4.12709155245390   -2.04557428911205
H          12.49206343760750    1.10863330630821   -1.60775592131685
H          14.46488890578467    3.44050670916415   -1.31710219664869
H          16.88386039139565    2.52446718452418   -0.72547986273739
H          18.10065922898102    0.29339595838325   -0.27949328081833
H          18.67733937439604   -2.10960096095095   -0.03948708883763
H          18.58876674755653   -4.68174044965513    0.06095273694188
H          17.01901397257168   -6.55084592642282    0.09058060954782
H          14.11171909052143   -4.64978515183692   -2.21098429552484
H          10.79250779417854   -8.19400977195992   -1.18976767976156
H          11.63953166326818   -9.82987052180770    0.07888744581618
H          14.35583576246407  -10.71180725364039    1.18308366867718
H          11.58261696309534  -12.04601378248443    1.04348164782412
H          12.21265156806986  -17.08044763782484    2.50564773972163
H          17.36050933656810  -16.99948265493693    4.58906283364783
H          15.06821508684523  -20.56707573025085    4.11461377374116
H          13.17739842761852  -19.25306366637000    3.18666186506191
H          16.42974223476724  -14.83648245369101    3.93711058462687
