105
 SCF done       -216.491266916615          0.000383849105
C          15.50957737845913   -5.52282450241809    7.78027003438307
C          15.65550744610648   -6.74522971721797    8.37522138429699
F          16.83765313850963   -7.07660333918207    8.92521619490428
C          14.61334051599013   -7.68010446616951    8.43731804811818
C          13.40506515062403   -7.36122863787650    7.88254988165726
C          13.19923959723008   -6.11490885536443    7.25640027031808
C          14.27101320421864   -5.17643593072349    7.20682793042543
C          14.08401881797190   -3.91287127398882    6.59820556003723
C          12.86646621286999   -3.60354223416951    6.05720820334845
C          11.80435396549374   -4.55327402891022    6.09164487387979
C          11.95511375591567   -5.77643735579322    6.67786292592898
C          10.62177192695884   -3.98441705357421    5.41739515200104
O           9.52387309695601   -4.47833235261708    5.28994489984212
C          11.07643484696841   -2.67984466282613    4.86701743417869
C          12.37040082819889   -2.38116821604841    5.42881384961643
C          12.90719969744453   -1.12989584909529    5.61037637485502
C          12.22988806460573    0.05713888121289    5.27044442173830
N          11.68169041818107    1.04180968420302    5.04829182229009
C          14.14166968878574   -0.88899800001886    6.24326556046107
N          15.15355053720957   -0.64067467795913    6.72575262922845
C          10.29589753710708   -2.03638134906503    3.94565255088363
C          10.64590889667835   -1.06469322523828    2.99666805197159
S          12.26860899598404   -0.81195282733207    2.43409527863126
C          11.80991115441251    0.46115416791803    1.35193139997349
C          10.40788120530946    0.63962964191401    1.36779219577841
C           9.75531105292867   -0.22592567624327    2.29328349166844
C           8.36090020788878   -0.16971672031788    2.45227940131923
C           7.64151709773743    0.69263071809986    1.67179130078599
F           6.31043748125922    0.75645974613236    1.79702826237526
C           8.27825896630385    1.50265780502257    0.70853253928874
F           7.53289085798097    2.29807041708189   -0.07230317039613
C           9.63683243264492    1.48196466774829    0.54892019687335
C          12.82068780107313    1.14639591144599    0.65772565937678
C          12.72971106950157    2.42043172324645    0.16586034463494
C          13.74722071784523    3.07784438614617   -0.53572914902902
S          15.18400357685302    2.26703721749039   -1.07989624439375
C          15.83191024431384    3.69715251998669   -1.82202969440895
C          14.95558577691359    4.79033590971439   -1.63186864451368
C          13.77562243100177    4.43835866879034   -0.91730769104685
C          12.79856551001004    5.41213422841989   -0.65389019815705
C          13.00306209980661    6.69074644476943   -1.09535084891700
F          12.08334487832131    7.63345510395778   -0.85366949342730
C          14.17178776414226    7.03942615201156   -1.80431716825364
F          14.33024979231603    8.30375982681919   -2.21676719896952
C          15.13916945953517    6.11043171757106   -2.07406360742262
C          17.04399179753984    3.70325214596728   -2.52278716425672
C          17.77641184306101    2.58295602683366   -2.81130640824303
C          18.96778240020751    2.53425485189987   -3.55225445601195
S          19.40046540312224    1.02895275772172   -4.29974554033384
C          20.74427790507945    1.71502871145890   -5.14850398011725
C          20.89771981543923    3.07564633902869   -4.80311259651552
C          19.90697390221565    3.53761543865812   -3.88726694639592
C          19.99374163933307    4.84462708464752   -3.37954672154421
C          20.99054072483141    5.66930540968848   -3.82591244076179
F          21.08530937473635    6.91503830306843   -3.33983167472135
C          21.93229630229618    5.22904226228621   -4.77778977698903
F          22.88720215620648    6.07215343271686   -5.19113037373619
C          21.90129932324281    3.94757816768497   -5.25502534980699
C          21.47243338826612    0.99525800860103   -6.10460507370633
C          21.29507882693240   -0.33015687510184   -6.38923421509545
C          21.97807919960168   -1.04370345576760   -7.39237589790137
C          22.62110957766112   -0.59827034137494   -8.51681039911955
C          23.60038725664972   -1.51021427701702   -9.17261993769251
O          23.76366347744543   -2.68462014169071   -8.92905871728462
C          24.34400816687818   -0.66907551285961  -10.12777330579612
C          25.42113171486716   -0.99077270846386  -10.90179892265287
C          25.99159010162518   -0.00158201879937  -11.73411799891347
C          25.43715936212561    1.31147552330429  -11.73722161968716
C          26.01514938203683    2.29597214312405  -12.56173042005899
C          27.08877823797473    1.97062275687767  -13.34339397361713
C          27.64637043336304    0.68483288930203  -13.35692595863171
C          27.09939045111893   -0.28204164730734  -12.55986848422723
F          27.64080146962273    2.90866234843367  -14.13338215036853
C          24.31680599758087    1.61414533863979  -10.92794645683562
C          23.77086826427237    0.63469977276861  -10.14366746292314
C          22.61046613495451    0.64387780980267   -9.25224694072608
C          21.59487901981534    1.56685613011045   -9.31886745045250
C          20.37273540689360    1.46735737208368   -8.62877630392700
N          19.34874557527758    1.44174327771048   -8.10911234071170
C          21.62107659482052    2.70634758577457  -10.14857848757959
N          21.59200631221121    3.66132658371053  -10.78523995655918
H          16.33261832327834   -4.82577356444913    7.75536239621226
H          14.78664896702222   -8.62843306521593    8.92073734906944
H          12.58704196067325   -8.06490941973560    7.91808692521693
H          14.91247645959152   -3.22275376271032    6.56985946024399
H          11.13426115485584   -6.47730905718802    6.70404336720634
H           9.27159828774844   -2.39440818991261    3.89992317506035
H           7.85041351193969   -0.79389448470191    3.16674224932693
H          10.08160620233590    2.08509810109704   -0.22389885086442
H          13.77615882146503    0.64051434709899    0.58567198014792
H          11.84577623882614    3.00269526213579    0.37473112132589
H          11.89795973806639    5.17947133562355   -0.11029818057088
H          16.01914883224524    6.40958957241289   -2.61890162217406
H          17.35982831682362    4.65848688947447   -2.91121765428727
H          17.36304242123844    1.62368546131397   -2.52318464748807
H          19.32262278644517    5.20351893379614   -2.61832850259119
H          22.65438206107439    3.62745345344574   -5.95589434794621
H          22.23689141065021    1.54554828176515   -6.63641640268161
H          20.62202931422149   -0.90010035443030   -5.76120988213178
H          22.05945774095479   -2.11692484483360   -7.24312957890907
H          25.83300168815941   -1.98855256582891  -10.88088313083264
H          25.60914207671566    3.29532286725914  -12.58006196044689
H          28.49315590865114    0.48669846975050  -13.99467563358992
H          27.51164934223275   -1.27980321944413  -12.55310097918321
H          23.92503621475854    2.61872348206263  -10.94578576553405
