92
 SCF done       -166.571623918105          0.007979194706
C           9.31327167710607   -1.93307409807198    4.71585806716860
C           8.65098365984570   -2.83767503417488    5.49734283942737
F           9.36170143755287   -3.72829146731064    6.22170544007338
C           7.25360149606879   -2.88060238234146    5.57978882498340
C           6.52382128206956   -1.97190514747205    4.86284140783899
C           7.15446879115039   -1.01838621498659    4.03861824628018
C           8.57566189827336   -1.00982689225646    3.94941285500611
C           9.23062288807993   -0.07975202828772    3.10985825258078
C           8.49005615361740    0.82171424792675    2.39654769002192
C           7.07252150380473    0.83678055925439    2.52234819571529
C           6.41213862805831   -0.05693639313331    3.31283645591452
C           6.53254698469941    1.94872317856784    1.70462620423088
O           5.37173392470629    2.29107984889467    1.60644819157553
C           7.69653790198958    2.52137271071386    1.00561834080454
C           8.88795471315013    1.91970776629586    1.51535910233712
C          10.17633895866645    2.41279490231218    1.41656256804161
C          11.31036138031602    1.72040450947760    1.86441192423000
N          12.25962651300602    1.14461224737555    2.17327935237514
C          10.46802496096874    3.69942225846863    0.93085258842822
N          10.71968712175637    4.77182244371592    0.60150828779213
C           7.48803943561520    3.43884309540498   -0.01233146446195
C           8.26504920238459    3.72649982994953   -1.12236770684052
S           9.57927477683324    2.71170915716082   -1.67496991814334
C           9.85842517088824    3.66495828941289   -3.10058694373121
C           8.95627712514576    4.76628078068903   -3.13985737194877
C           8.05603048229887    4.78691495996145   -2.04363471301861
C           7.11098699424398    5.81601408785254   -1.93504015680208
C           7.08034421231777    6.79124064391381   -2.89839399017009
F           6.17691290271206    7.78194810239765   -2.81267494443955
C           7.97994570918951    6.77723907327656   -3.97783226879911
F           7.92834489546990    7.76083435987660   -4.88959297414477
C           8.91163648812186    5.77732785857631   -4.10482425590356
C          10.83570768280868    3.34304659652833   -4.02816297591847
C          11.72872240618832    2.29359692110064   -3.88776235007087
C          12.72755335031187    2.00175033986858   -4.79476193778104
C          13.68286105288974    1.00714285713173   -4.61274901854272
C          14.77310190384007    0.71678176367145   -5.44755302999808
C          15.59520928968067   -0.27397932779189   -4.97401886086574
C          15.17764402795198   -0.81590441944569   -3.75175031978048
S          13.69864902260478   -0.04498553689338   -3.21707865793542
C          15.79236789071961   -1.80244637546930   -2.98723002491822
C          17.04853411856270   -2.39950559559812   -3.19292003198271
C          17.38381471268659   -3.30560934947666   -2.22809521272363
C          16.41083316066018   -3.47559062759345   -1.21474360924107
S          15.03970508899312   -2.43970878583918   -1.54922998566628
C          16.54548462465383   -4.39547968385415   -0.19500900738576
C          15.72691268946854   -4.78505286220686    0.87008504800029
S          16.14797179953262   -6.33288782451343    1.58794467895528
C          14.77231687366178   -6.30598609059568    2.63972382410436
C          14.05068511801475   -5.12819020448491    2.46363489100230
C          14.60615541696580   -4.24506724306670    1.51853138024009
S          14.13898751928888   -2.57930539680744    1.24973159445046
C          12.79418703953648   -2.33801440460661    2.45635226661374
C          11.84325690349981   -3.51217225784829    2.43271115201538
S          12.55993799885872   -4.89827298971498    3.36885597104245
C          14.44305817497138   -7.32783694655088    3.57376859255593
C          15.13983845969138   -8.44081357744269    3.87584108451694
C          16.42110587306988   -8.83832977735518    3.22372383502099
C          14.64592953487703   -9.36504421408763    4.95765062963826
N          14.70570430101905  -10.73890908066163    4.52532376657972
C          14.98590859228922  -11.76488580007456    5.39683798765800
C          14.73465421191208  -13.04946137652963    5.17212518242180
H          10.39282352030487   -1.90875713298129    4.70140396947387
H           6.78647295330233   -3.61905190302684    6.21184379423092
H           5.44541406266918   -1.97400538335043    4.92095346348123
H          10.30710747219891   -0.10005930427884    3.05579395461695
H           5.33603847185282   -0.02762743178063    3.39689916878101
H           6.51504472921736    3.92027548089362    0.02107626506432
H           6.41609388355826    5.86392891760953   -1.11283449775292
H           9.59576758964349    5.79333956962936   -4.93722887908067
H          10.91354193581100    3.96876215527168   -4.90647723495173
H          11.65954668187839    1.68113204375148   -2.99666441499638
H          12.80788718324741    2.59773039576890   -5.69438206587655
H          14.93701137391489    1.24906546775831   -6.36716362497165
H          16.47954584744503   -0.61703454709409   -5.48021229745339
H          17.67936019309046   -2.13865062903230   -4.02329411648436
H          18.30952557803862   -3.85342176764694   -2.21421149885104
H          17.44304111186572   -4.99975307931828   -0.27890810259863
H          12.32277112167183   -1.40801301951906    2.13554733230015
H          13.22784528399971   -2.19881877715423    3.44715602794687
H          10.90165053435993   -3.28806245924236    2.93311332984800
H          11.63994761760856   -3.84104686613704    1.41339524188603
H          13.52356332473046   -7.13529179954154    4.11469071326842
H          16.29518441711423   -8.93961298218870    2.14663929222882
H          16.76240399937349   -9.78849164362240    3.62366828376595
H          17.18760919425068   -8.08248461772260    3.39014186174329
H          13.63523652720859   -9.06855755964398    5.27618858540177
H          15.30994048630536   -9.26444073947359    5.82510524867578
H          14.07897224577989  -10.97265983422821    3.76881250614103
H          15.50438655854554  -11.44959337199305    6.29454024257680
H          14.22389308170241  -13.38218748526631    4.28371233429263
H          15.04379490942476  -13.80486568031434    5.86882012904489
