115
 SCF done       -203.985958914657          0.000597829876
C          13.42782865072728    0.07391000639621    9.38982129879572
C          13.33575279380418    0.42212342612216   10.70773348428309
F          14.46056898604376    0.53692518834551   11.44529046533551
C          12.10940644159362    0.67284399831117   11.33449274773991
C          10.95930710918055    0.57243197086106   10.60113690447181
C          10.99615686452583    0.22895587495810    9.23558389993577
C          12.25384088056811   -0.03092480095091    8.62018623683541
C          12.31573598853393   -0.38993307696096    7.25329176730865
C          11.15869395715884   -0.47161381550796    6.52992653708956
C           9.90591888952273   -0.17725934056652    7.14017854758150
C           9.81578692883438    0.15375201098275    8.46003313108464
C           8.83464534602424   -0.28682594797650    6.12288256978674
O           7.64246227448631   -0.12970955969657    6.28755792511436
C           9.53209153201673   -0.56880744882305    4.85177172653122
C          10.90732553990482   -0.86513649682129    5.14492261833983
C          11.75697697548567   -1.64319207726968    4.38932267132480
C          11.34860606951254   -2.30361736310804    3.21533390979440
N          11.02531146598520   -2.89599726100894    2.28510713465682
C          13.08570782492509   -1.92720242299693    4.74635696774588
N          14.18855636392491   -2.15789567892757    4.97412640242419
C           8.86627292078816   -0.44949519923525    3.64951713424596
C           9.41130045407214   -0.19337049628951    2.39284634992608
S          11.03314570666668    0.41402274320510    2.19373402302463
C          10.92218894871114    0.47106626595795    0.46459047195188
C           9.63289264323743    0.06320247003043    0.04714302794829
C           8.78047794724370   -0.29092049395368    1.13124026038239
C           7.47169930270283   -0.72738701181253    0.87803233810230
C           7.03576496069386   -0.79221095040763   -0.41827891100030
F           5.78349265531632   -1.19668161303677   -0.68156351914018
C           7.87874353477820   -0.44106545659033   -1.49029777049222
F           7.41002520263560   -0.52166079443055   -2.74779473752600
C           9.16257766943457   -0.01972684596261   -1.27096958965617
C          12.02546614152214    0.83605815538777   -0.31440820303476
C          13.22232533368558    1.18265634128647    0.25858235605197
C          14.43831666068299    1.48302569744670   -0.36107909499518
S          15.78844434590459    1.86085847271605    0.70562342308046
C          14.82053404495429    1.49736160125395   -1.70646955442824
C          16.16673052782077    1.77097126653848   -1.88473806189737
C          17.15701155677684    1.93282767726294   -2.96203741371043
C          16.96284642129620    1.80047031884293   -4.28834020883677
C          18.02159534884451    2.11719457845830   -5.30549629832609
N          18.70567655956101    0.88262620477430   -5.68107787272542
C          15.67303246243139    1.31895150187995   -4.88823606952328
N          14.87432967105821    2.47194328688642   -5.29667325691448
C          16.81668162520275    2.00559522580863   -0.64710616629775
C          18.15654412547230    2.29191537561925   -0.87787406426860
S          19.54264121058376    2.59982833674536    0.07306052890383
C          18.41359855744940    2.25995273545833   -2.26752691243420
C          19.75934824705119    2.46296907268391   -2.53684243372843
C          20.52929146636763    2.66496043740302   -1.38610619827293
C          21.91121891885462    2.87083412029793   -1.27678663960863
C          22.51178716375946    2.99694744259617   -0.04575300673243
C          23.85364589997959    3.16882975854773    0.26324816678046
C          24.27325351450392    3.23771697470168    1.58517916410432
C          25.57138730941156    3.39072194862664    2.10389313503279
C          25.63359934371771    3.40602413292808    3.47498249689054
C          24.38474364129028    3.26706640729699    4.09934952961339
S          23.12306730878044    3.11695974887118    2.90114779167104
C          24.05151509275501    3.24093098775715    5.44935920099151
C          24.87832857975536    3.34379345156666    6.58241520086543
C          24.19570143888404    3.29166157619637    7.76557185240544
C          22.79463117492370    3.14665499155447    7.63393700855080
S          22.38439985938980    3.06567205654614    5.92878272882803
C          21.88763177387948    3.11610533209025    8.66866416608254
C          20.48611977559957    3.00761804881134    8.61220723185640
C          19.63901173655551    3.14444805718042    9.72466998424765
C          18.29870986355065    3.04375879811418    9.29511529109611
C          17.09953095623046    3.17666550345223    9.96857639944628
C          15.91888485259724    3.07637906860376    9.22180125960200
C          14.58483029806622    3.22958255476915    9.58169920184430
C          13.76656391099362    3.04672140236140    8.42590974397955
C          14.59580637806018    2.76721858295848    7.35160208600121
C          15.95194561062962    2.79331921423652    7.79562209066064
C          17.13644792295123    2.65252220379915    7.12264618608485
C          18.32973072899901    2.79860253203916    7.86239713330765
C          19.65148969362228    2.77958401633264    7.46399543374287
C          12.32906368520011    3.15025080214777    8.35737528430326
C          11.53320846947706    3.51452599530618    9.35868993860417
H          14.39008313234314   -0.11655955273193    8.94063731141338
H          12.09670683768524    0.93837542780001   12.37998405863034
H          10.00198938800479    0.76205885263742   11.06305760570283
H          13.28060702126580   -0.58249897264027    6.81142494393296
H           8.85596145521041    0.35734945790721    8.91085302810906
H           7.78394613202413   -0.46809215509085    3.71827647078781
H           6.80955282630633   -1.01129303559790    1.67912326683777
H           9.78806773300117    0.23848503099186   -2.10942843004158
H          11.91604372023227    0.81135000120885   -1.38799274792943
H          13.25135011429307    1.20730527428272    1.34183562205648
H          14.10246238391324    1.29969314596128   -2.48038277424076
H          17.52166284262382    2.50224182525638   -6.19884431404909
H          18.69191637532776    2.90200480983146   -4.92496919622810
H          19.18763651434761    0.49140341686577   -4.87811253559897
H          19.39241822145623    1.06569818243767   -6.40418800283735
H          15.15783223131186    0.64263876273767   -4.19075880855329
H          15.91835669354777    0.75134406153981   -5.79048870162971
H          14.61125917437080    3.02088098291376   -4.48438713550926
H          14.02563175549755    2.16586547234682   -5.75949497243745
H          20.22427515581906    2.46105391540386   -3.50579382035845
H          22.49515933769545    2.91045172476692   -2.18575237079878
H          21.84777617983617    2.94091503871902    0.81077186509552
H          24.59611997744635    3.24157573678373   -0.51890313008217
H          26.42881857216108    3.48426659118169    1.46063803882188
H          26.54498414155271    3.51367952049783    4.03606792872120
H          25.94473806890190    3.45614615898252    6.50199699089060
H          24.66096704526839    3.35808762198379    8.73361038828734
H          22.31058959990954    3.22191078857334    9.66112782907013
H          19.96017665185474    3.32205899184105   10.73464091122274
H          17.06545418722376    3.36601396970898   11.03182772929779
H          14.22725908949587    3.45333720496951   10.56976751076360
H          14.27932490140317    2.57365055976188    6.34283086885474
H          17.17169338412729    2.45632186807841    6.06044941957252
H          19.99656202016875    2.61269237594898    6.46124772784914
H          11.89944990870416    2.91585715568336    7.39111854202778
H          11.91443330785961    3.76697358811995   10.33292830620357
H          10.46665187996700    3.57913440136182    9.23333199314079
