91
 SCF done       -161.027314495243          0.000801556855
C          12.82283759524837    5.78912399912495   11.32822142465018
C          13.11455148311536    6.46981272142158   12.47760715695982
F          12.84872827489419    7.78800548308720   12.55231299947567
C          13.68566404372712    5.84814056858436   13.59539067508784
C          13.96432278126489    4.51043817688566   13.53641399182668
C          13.68579333121470    3.76048980347284   12.37619855888809
C          13.10078628839459    4.41075638179791   11.25080979253114
C          12.80091035597542    3.67634238785973   10.07922230272977
C          13.08510560186441    2.33838391865964   10.03548470790825
C          13.68854841456230    1.69771415057060   11.15672816346977
C          13.97732807669857    2.37910459707488   12.30301281133776
C          13.92749805827727    0.27674669157964   10.83639405466553
O          14.37908184477613   -0.58345897539349   11.55734772331906
C          13.55450522519822    0.13666762244812    9.40180514300138
C          12.85521540616467    1.33484463179457    9.00157697839874
C          11.92168334947824    1.43090574301081    7.99717770571265
C          11.21680544670284    2.61049067764308    7.69458104910927
N          10.63240802554660    3.55242960392584    7.39261639869233
C          11.49322114709149    0.33009854949888    7.23084763075943
N          11.08111151976071   -0.55433970929120    6.62424983118787
C          13.98644705251801   -0.94954248209241    8.70316200843813
C          14.13445966740782   -1.11975302800067    7.30692662882960
C          14.35886778761404   -2.32592089423680    6.66598667927328
F          14.38676077796491   -3.49160890799914    7.31653445570930
C          14.53591365728542   -2.21850776832324    5.27927395187521
F          14.82580974323930   -3.28075014144338    4.51487044424093
C          14.48181541494700   -0.92457820723680    4.80863417068854
S          14.22653909950390    0.16794319345876    6.13490024291430
C          14.62727075634178   -0.39740435395269    3.47754110428809
C          14.20067661853943   -0.96775645829512    2.34374293489046
C          13.42727038713564   -2.24294062324964    2.27474003815563
C          14.48546100294946   -0.34498329034535    0.99152857983046
N          15.02143928007266    0.98605723362253    1.00470266553008
C          16.31198798655602    1.26968702330342    1.29147080810031
C          16.79428099309757    2.53130088231203    1.45031233690855
C          18.14092694046124    2.82015846953811    1.72954356684705
C          18.65884537078755    4.08647362887735    1.83071285386373
C          19.98719018352302    4.44989497794311    2.15185200455007
C          20.21643536187372    5.79370265582924    2.16223942309550
C          19.08539563419580    6.57161905465581    1.83562726209376
S          17.70542179892546    5.53919353983418    1.53888572215293
C          19.00581536014945    7.94853969483447    1.72006841784719
C          20.01841236367649    8.90006038827794    1.95954138635240
C          19.63136680962531   10.18651124130075    1.73139977665750
C          18.29378910140250   10.33371619315884    1.28656931886420
S          17.53946622102033    8.74809567817568    1.19837974723007
C          17.70342441056917   11.52874494437747    0.95880760096128
C          16.41003569671305   11.78552721700306    0.46150716871065
C          15.94066641540053   13.05858183247119    0.11569060660337
C          14.61943687076058   12.94291692663393   -0.37583427630561
C          13.72942326163792   13.87850166357810   -0.85700491254171
C          12.47392376003855   13.42426834416357   -1.28988288082733
C          11.38165429076877   14.09350185443790   -1.82252185044541
C          10.34251235741489   13.15185606278856   -2.10206768342625
C          10.79413457448255   11.89523459258779   -1.73956695809020
C          12.12311614648690   12.01563597600598   -1.22726766665859
C          13.00248386369131   11.08216549151734   -0.74780508153630
C          14.26861678349227   11.53397966804857   -0.31747197114367
C          15.35477184801575   10.84811007333798    0.18993869622529
C           9.06697901223093   13.52196541612118   -2.66809476258026
C           8.07064077842177   12.68478360922103   -2.94442158408097
H          12.37914790211127    6.30042447376965   10.48827371912692
H          13.89284991766339    6.43587477248874   14.47558609826010
H          14.40514828716093    4.00854041161719   14.38464507528587
H          12.36195983405683    4.19242870108169    9.23998038566438
H          14.42320695940630    1.87195162191815   13.14548620691486
H          14.34446460002177   -1.78057765487252    9.30414802839067
H          15.09917915787930    0.57627505094660    3.44229275829826
H          14.09783664501257   -3.09599552413113    2.17684078183971
H          12.76289041437551   -2.24008016750655    1.41362422887727
H          12.83375399538506   -2.38552023392499    3.17414365721663
H          13.56160758581807   -0.33250216078901    0.40550261321375
H          15.19423491901199   -1.00092773599114    0.46966053695604
H          14.36141102123710    1.74567817790106    1.08058254842648
H          16.97298917651969    0.41539835367091    1.34610337804068
H          16.11488983686027    3.36912735436359    1.36021258343782
H          18.82089813687459    1.99203554631273    1.88158470179688
H          20.73299136594327    3.70481197812503    2.36747747213660
H          21.16800954957911    6.24261618523844    2.38396966945551
H          20.99948850691202    8.61458877834879    2.29462426094980
H          20.27047999491579   11.04251839477555    1.86088689187553
H          18.33356846958273   12.40239879962096    1.08189097247175
H          16.49604513726716   13.97445734702642    0.20253084573679
H          13.98288820308032   14.92818682915154   -0.90612556753255
H          11.31248525298784   15.15181629056652   -2.00323493885590
H          10.25448268642159   10.97047691605579   -1.82139298752176
H          12.75179460870152   10.03176798862763   -0.69774837445307
H          15.40570004501930    9.78811364204030    0.35499219621087
H           8.94689481230266   14.57900505951932   -2.87292653778267
H           8.14445590214783   11.62709663413717   -2.75821575039195
H           7.14403536483998   13.03129577410979   -3.36809552762100
