99
 SCF done       -193.175805888154          0.000811337542
C           9.43249358661524   22.38439184278073    5.37170054621382
C           8.32271897877646   23.04359711111787    5.82289898843312
F           8.46048469184607   24.24611210934401    6.41163621562389
C           7.03162063068409   22.51420408512408    5.69783504517465
C           6.87256964349623   21.29334397654060    5.10272336507739
C           7.98208833574385   20.57012717225221    4.62029591751481
C           9.28677877407308   21.12663890937643    4.75600186675976
C          10.41616973624768   20.42182730730446    4.27484080047061
C          10.24282998649386   19.20095653040230    3.68374983370120
C           8.93707483131707   18.64307004680023    3.56385560307074
C           7.83033215612672   19.30371446716224    4.01074722969154
C           9.03712324940150   17.31015897983016    2.93661605577263
O           8.13400382214013   16.56040282358901    2.63219877440295
C          10.49012254210814   17.05269925424341    2.79740636628295
C          11.19894815583376   18.26932289173267    3.08376731832807
C          12.47423738512285   18.59642946550383    2.68391403808907
C          13.09263165849400   19.82943880804353    2.96744225851912
N          13.65374431776523   20.80701815295738    3.18793451577111
C          13.27073960754738   17.79015115571544    1.84758722805801
N          13.93947131542299   17.19470912610333    1.12801517225149
C          10.92977510932380   15.76967453383045    2.55720280993513
C          12.20023117280723   15.24944294510983    2.78189345072315
C          12.56595627225433   13.95629852250594    2.46254953980068
C          13.82500376189561   13.35855631700477    2.69129626925315
C          13.91296051370011   12.06471039078040    2.26567722539439
C          12.72646102507265   11.58141740026639    1.67758487320679
S          11.49516457253431   12.82194900862499    1.67449892772513
C          12.48879493368280   10.32031139137100    1.15255368247845
C          13.38244909454022    9.23503043532936    1.05618930899502
C          12.83229232426094    8.12350564714669    0.48799913005252
C          11.47930148747087    8.26953664852021    0.09768376424529
S          10.93153520534421    9.89014771098706    0.48797282446066
C          10.70393558385416    7.23107897972637   -0.38038902589846
C           9.36135673618998    7.19491477169539   -0.77169597888452
S           8.54468630536216    5.65609811305809   -0.63288896921263
C           7.04378608657673    6.41430615586585   -1.04325983953282
N           5.89342146862383    5.61290069370506   -1.06093251495133
O           4.81621984181387    6.16287975230734   -1.20113446106111
O           6.05505401977129    4.41531389911139   -0.91304953299442
C           7.15349931373040    7.74596855173479   -1.33031362501953
C           8.48136778103913    8.21611291678413   -1.22396484309250
C           8.95227017185044    9.47197707692071   -1.67602066166082
C           8.23112245186924   10.59983742711515   -1.96411552286573
C           8.77730243157533   11.79287672963791   -2.51327606027670
C           7.85996673743699   12.75876076970948   -2.78394169296251
C           6.53398548116435   12.38599373324450   -2.45932441470367
S           6.50725161616841   10.80004470083768   -1.73067283988903
C           5.35679464835962   13.04126942827556   -2.76054701996954
C           5.15808403265382   14.20341498445420   -3.54037802935437
C           3.85372272911759   14.42387563130974   -3.85811405879299
C           2.95278406533690   13.44282415049112   -3.36249681205322
S           3.81830468693960   12.31219932473360   -2.35758377189958
C           1.59875378246962   13.41164725182651   -3.62472688158774
C           0.62722166195684   12.46869957807769   -3.27592548709908
C           0.67417574894534   11.15999968403643   -2.84615613542063
C          -0.53138738400329   10.63911601556328   -2.13909850465852
O          -1.61749417808975   11.17218974592530   -2.07892259750584
C          -0.10009918783871    9.38296877090796   -1.50343789856085
C          -0.79174636201939    8.57140023820579   -0.65269624969600
C          -0.15874065539751    7.41762560421047   -0.13788948653616
C           1.18160896388727    7.12745247333656   -0.52496831378674
C           1.81238110970161    5.98247925574879   -0.00273415194908
C           1.12690025445486    5.17789134866100    0.86461638745766
C          -0.19248302340642    5.44366306053195    1.25526869998259
C          -0.82065281212965    6.55011920894420    0.75407569165636
F           1.72569851928424    4.08618045991047    1.37697488658069
C           1.87102327980914    7.97910889460171   -1.42289792240609
C           1.23735471667861    9.09243770255696   -1.90269096286324
C           1.66881385789032   10.12705596466878   -2.84081090574115
C           2.75117001921305   10.03034135173171   -3.68938690758397
C           2.92538516264074   10.88589516050228   -4.79321985146055
N           3.07754237005803   11.56086416374396   -5.71005863870352
C           3.78247776711500    9.08043286507147   -3.57750328085753
N           4.70812429217736    8.40278012440151   -3.51028590783034
H          10.41143958206894   22.82409270753954    5.48231027107967
H           6.19334160850955   23.07960338604090    6.07292650016834
H           5.88759911995460   20.86443347017332    4.99493781958904
H          11.39187008992561   20.86470417443821    4.39727512278505
H           6.84927688812440   18.86558672511588    3.90363250940868
H          10.15696748667707   15.07598788325221    2.23806083547521
H          12.95381036910325   15.85799761028493    3.26033273161519
H          14.62648344345442   13.90362380530057    3.15663970166775
H          14.79247506925903   11.45445860097677    2.36303722901394
H          14.39762587264322    9.29696191548089    1.40322256404092
H          13.35996630930794    7.19887514888409    0.33469073977310
H          11.18915393138213    6.26207449904366   -0.34230281710068
H           6.31226747387324    8.31789022277415   -1.67946370204179
H          10.01397371288576    9.53506098424059   -1.86950152702490
H           9.83144124205907   11.88396597618833   -2.70614265918816
H           8.09091581376768   13.71491987333493   -3.21721018839007
H           5.97799031277932   14.81240803362064   -3.87500125852501
H           3.50716388407929   15.23126388463142   -4.47792993966208
H           1.22429171989168   14.28943264520687   -4.13825520203501
H          -0.39159132294056   12.85090419171474   -3.29527158035943
H          -1.80777422341811    8.80702573356194   -0.37297052652920
H           2.82511244029191    5.75435469852353   -0.29448662877988
H          -0.68340862670285    4.77145033563135    1.94129536464214
H          -1.83736117911494    6.77574762604469    1.03944896565444
H           2.88480601102332    7.72308398697175   -1.68900917715854
