98
 SCF done       -179.353235876674          0.000797793635
C           0.87308359111291   -2.06005223783283   -3.36075569678394
C          -0.44904813298254   -2.23329222035263   -3.05861617053299
F          -1.33901888561018   -2.41115088171744   -4.05428042457821
C          -0.92541110773309   -2.23316573602538   -1.74147881392266
C          -0.03661093679119   -2.05330578972825   -0.71763339649770
C           1.33697784187059   -1.86851782426414   -0.97205373315779
C           1.80109272058676   -1.86971284609059   -2.31903510272927
C           3.17415901960873   -1.67248195476980   -2.60079785892455
C           4.04989665803612   -1.48145784272586   -1.56757213649178
C           3.58231807866871   -1.49985170027822   -0.22212980789951
C           2.26472013457079   -1.68230991204183    0.07862442336949
C           4.72787512254555   -1.30494937016739    0.68841264674033
O           4.70934664044985   -1.22450808755060    1.89833868285489
C           5.92589667788930   -1.27305765696231   -0.18485478003695
C           5.48829871554694   -1.21655767049727   -1.55306287668769
C           6.21424040037977   -0.76969417804814   -2.63545276379823
C           7.51368600068653   -0.24131915357372   -2.55138374276036
N           8.55226242625773    0.25119743335431   -2.53318053944511
C           5.70380001893281   -0.68551813057885   -3.94439780192347
N           5.35157499244996   -0.61189828112089   -5.03553910683445
C           7.16911761664753   -1.30156973107852    0.40042173897082
C           8.41730022148321   -1.62694258244809   -0.14247032193191
S           9.84526612712389   -0.99172733277953    0.62279806364742
C          10.90797863542367   -1.66405204466131   -0.56074346655020
C          10.18205696548687   -2.43417683944963   -1.49023081770730
C           8.77641735955031   -2.42686719465054   -1.24640267845395
C           7.92837250502997   -3.22894566397580   -2.02799019685578
C           8.46326758659639   -3.94762876112783   -3.06222682572082
F           7.66704603545472   -4.72394162537302   -3.81364157632158
C           9.84291110099426   -3.90129983350649   -3.34555558843706
F          10.32435772291522   -4.61630543657051   -4.37634631773599
C          10.69903072891670   -3.17158630533853   -2.56864191989931
C          12.29832224699342   -1.40318224851946   -0.56520951452613
C          12.92380867643250   -0.65863271355679    0.37963069258871
C          14.30315314473273   -0.28338373476433    0.44860231181508
C          15.21800148647570   -0.20677752602252   -0.53588533633316
C          14.96944522578626   -0.51076509193279   -1.97911443217491
C          16.60198962503255    0.29678186160752   -0.22720849325396
N          17.60450344043819   -0.61677299412081   -0.72658127858113
C          18.87313787506549   -0.27203693383334   -1.03879588778413
C          19.38344595072172    0.98874154182401   -1.04878616610433
C          20.70953916821912    1.28416405751599   -1.41250937029338
C          21.21973442641966    2.55604722142823   -1.46077800349491
C          22.53844757400101    2.95088969936212   -1.78746472576497
C          22.74369033001567    4.29793584898163   -1.76296331929252
C          21.59710977668191    5.04928147074466   -1.42334248795442
S          20.24539743114801    3.98581384601174   -1.11724469707155
C          21.45932021468911    6.42228162436315   -1.33876031329373
C          22.44629497916034    7.40970529190623   -1.54040232046601
C          21.97266727549666    8.67654887692755   -1.40218922893294
C          20.58523711833070    8.77043793273607   -1.09259314713961
S          19.91449869276782    7.15839974672453   -0.94965364189726
C          19.94767878743961    9.97848005578372   -0.98188473018040
C          18.59485904974650   10.33233801925274   -0.72979430569710
C          18.22770333160549   11.69340132532986   -0.79564616720571
O          19.24017707883064   12.54462475359914   -1.12610448968964
C          19.23955285575772   13.89382986735716   -0.70970796392735
C          16.88015749541810   12.11627160140547   -0.59444087886346
O          16.63327338802348   13.44872782450070   -0.77026184838545
C          15.31603524646096   13.91747590914930   -0.61430658249798
C          15.89090851401053   11.21694236545431   -0.26488487900393
C          16.22171594641631    9.86226808422448   -0.15792306056144
C          17.56437345276651    9.41002971051723   -0.40358525549406
N          17.67133210393051    8.09809923683402   -0.25928224050982
S          16.23119028104515    7.48393264443422    0.14062346400844
N          15.39727113358651    8.86368331524796    0.15324021495229
H           1.20404234885535   -2.06281002086729   -4.38755336431062
H          -1.97972454817436   -2.37434711576350   -1.56357866416160
H          -0.37928912583189   -2.04989842192648    0.30631202478794
H           3.49767664510231   -1.68393041433073   -3.62946645140962
H           1.93103880994159   -1.68222138554619    1.10551604806569
H           7.16406189170735   -1.05355356484433    1.45844567229684
H           6.87672771698046   -3.31384025390184   -1.81073219200558
H          11.75328811282439   -3.18270537435668   -2.79042880879903
H          12.85488482643334   -1.85496610773768   -1.36931650087794
H          12.31766674380954   -0.30562807197248    1.20608427429072
H          14.61899735246543    0.03977215837312    1.43395085189137
H          15.02605910056556   -1.58255295906877   -2.17274076939629
H          15.71764747849211   -0.02253718596460   -2.59968146813788
H          13.98148054936405   -0.16495783873800   -2.27730699010623
H          16.72544034370583    0.45436631873146    0.85308427609518
H          16.74308387545464    1.26143089836418   -0.72568728034579
H          17.38898813772148   -1.59600428551517   -0.63378678906650
H          19.50376753899414   -1.10144715810967   -1.33107924170335
H          18.76908662597593    1.83025447652598   -0.76484741407130
H          21.37212842683324    0.46679143916866   -1.66539606083618
H          23.29502262333067    2.22511592491820   -2.03030767597098
H          23.68334482480238    4.77097680825602   -1.98591979873008
H          23.46668906031269    7.16663603508268   -1.77914821667029
H          22.57111865007267    9.56283362615989   -1.52275074705476
H          20.59064257830354   10.83415716202293   -1.14455427686081
H          20.28170820899784   14.21037403281705   -0.77187393164890
H          18.88970941608780   13.99995468142939    0.31889335048797
H          18.63154941081922   14.51928019365397   -1.36581878874987
H          15.36441759796325   14.98701857660486   -0.81357665959422
H          14.94862412859299   13.75467845274654    0.40351771030225
H          14.63479582071879   13.44543713689396   -1.32850459855576
H          14.86942892436312   11.51148713781985   -0.10264052986417
