84
 SCF done       -160.655042582206          0.000446840498
C           2.82802011018401   -0.71578172841398   -9.78226754689243
C           1.67608278319791   -0.90675746485628  -10.49302092998119
F           1.04409451148637    0.15489457076740  -11.02880726064309
C           1.11624399506638   -2.17593638945407  -10.69031877519160
C           1.74268764587798   -3.26550436569432  -10.15158504666668
C           2.93197939788463   -3.12635602980293   -9.40765721770552
C           3.48741522164544   -1.82693111931009   -9.22164185782089
C           4.68494885353501   -1.66237254907047   -8.48691812169287
C           5.29922462508729   -2.76130358726938   -7.95087247127618
C           4.72888375727317   -4.05580106746662   -8.12325372110134
C           3.58114993200602   -4.24480883590601   -8.83701695936630
C           5.55471252102042   -5.04899672022097   -7.40841171993763
O           5.41228950271001   -6.25038317049738   -7.37615769317599
C           6.57783004336599   -4.25008368012399   -6.67708676845273
C           6.53093459956178   -2.89733265673092   -7.18096900192144
C           7.54764170198143   -1.97884897935298   -7.14019947426088
C           7.45933331886307   -0.68352281827151   -7.68536903187388
N           7.43335547411947    0.39087125394260   -8.08992148768552
C           8.82280798966453   -2.24988617189158   -6.60771948094480
N           9.88473025313309   -2.43417349930920   -6.21127256909784
C           7.26938633534676   -4.82904311553086   -5.65990358930757
C           8.00196240661456   -4.22298580553398   -4.59626201558658
C           8.98308831223008   -4.94360443295431   -3.91059320992107
N           9.73876650900682   -4.49635356221275   -2.92369938121915
C           9.59316949863526   -3.26633611051596   -2.45079855189244
C           8.58428521387969   -2.43341453391546   -3.01004822789447
C           7.78223146169247   -2.91169116489967   -4.10004455062455
N           6.87266697111104   -2.01522004660778   -4.47849400743188
S           7.03209111782563   -0.69578266743907   -3.56410939282766
N           8.24533418628190   -1.20065554121087   -2.63885468636943
C          10.39182810487838   -2.75004921123968   -1.37143306567016
C          11.43575140925246   -3.32985358278709   -0.75367337646519
C          12.03411590290715   -4.64242121848519   -1.11873329563571
C          12.14647012825443   -2.58612786974235    0.35548065408898
N          13.36063952710838   -1.98364861526670   -0.14608075120343
C          14.53933166125078   -2.62545276504938   -0.19753978263857
C          15.62124199223528   -2.18028321606815   -0.90125031796812
C          16.85968003103104   -2.83318904013433   -0.91215584235415
C          17.96682393870496   -2.36864005611466   -1.58369070006573
C          19.23595854694001   -2.97992270451677   -1.68861631325210
C          20.14115030486576   -2.26776286592888   -2.42089335956943
C          19.63356181202557   -1.05045983424845   -2.92127902706035
S          17.96687795242412   -0.84117366717517   -2.45546690637895
C          20.28510953407761   -0.08041231111516   -3.66749891179967
C          21.60403421824289   -0.07650934674703   -4.16081071821241
C          21.92646346798344    1.05500538665683   -4.85082160805991
C          20.88042721179526    2.00925515824737   -4.92899493695290
S          19.46183426689796    1.39974859529984   -4.10416638977001
C          20.97122970879598    3.22935327323175   -5.55533177322686
C          19.99346868615880    4.23682502303440   -5.63787954231152
S          20.35439771023219    5.71013031706171   -6.53316156654518
C          18.83152314073983    6.44284264941375   -6.21279627690149
C          18.05614579373707    5.60494340281590   -5.44841539783755
C          18.71015735389635    4.37197722157266   -5.13119023873664
O          17.90681207568129    3.59491777386958   -4.37319938861607
C          16.76199217896193    4.30449486864360   -4.20401010121251
N          15.73424251235853    3.71893301162635   -3.43432710944157
O          14.72411841252910    4.38415858248241   -3.28076974073444
O          15.91464969411742    2.60816890470674   -2.97858156717896
C          16.78133826116916    5.52618621541520   -4.82473836497441
H           3.23259875370421    0.27596272335434   -9.65329577970104
H           0.20557754579856   -2.26552449827754  -11.26106471369311
H           1.33030815897559   -4.25375238180222  -10.28983275580361
H           5.08177430873737   -0.66813888138216   -8.35591967156755
H           3.16955574906241   -5.23508118469778   -8.96334860797889
H           7.19982532674935   -5.91230300042215   -5.61915591923918
H           9.19636857674615   -5.96088008027933   -4.21409720012860
H          10.06757167585208   -1.76954394029589   -1.04540526931327
H          11.96196769845639   -5.33152038678940   -0.27705826633392
H          13.09238738263954   -4.51453908691785   -1.35265420053589
H          11.52004879282297   -5.06725005100499   -1.97368631715210
H          12.41439500646957   -3.27459239544217    1.16146353173705
H          11.51115704244793   -1.79509722395874    0.76121033134317
H          13.23965216679444   -1.20346577934948   -0.77800832808565
H          14.61620738135205   -3.51433582473535    0.41542841706091
H          15.52943321175922   -1.27213289905400   -1.48221802995101
H          16.95928814175125   -3.76409676292338   -0.36859340605470
H          19.44328292210629   -3.92764203268925   -1.22290108673874
H          21.15357766828410   -2.58004329743845   -2.60433165165175
H          22.27727722680710   -0.89975702910536   -4.00069829774826
H          22.88505953041347    1.24035549008426   -5.30240401084019
H          21.91013633611402    3.45408969270329   -6.04348812110849
H          18.61051677925765    7.41648966811796   -6.59560410122316
H          15.99103882797395    6.24756707294470   -4.82294607955844
