96
 SCF done       -186.021739728007          0.000406751666
C           7.97290049217305   -0.47847524451614   -8.85135522098749
C           8.16437244980314   -0.58957317782566  -10.20033732929009
F           7.20249277438696   -0.17036278482838  -11.04257120713849
C           9.33543146884962   -1.12706637711960  -10.75195998585787
C          10.32560558891285   -1.55526100578078   -9.91241128134020
C          10.18231770894190   -1.46216820324468   -8.51269090785095
C           8.98165638826578   -0.91659065343020   -7.97123760970869
C           8.81047505945222   -0.82211793208937   -6.57040542370307
C           9.81117808143928   -1.25329487620152   -5.74209587795603
C          11.01741638407472   -1.77860093277809   -6.28932528892442
C          11.20434475103081   -1.89117824346894   -7.63690455418208
C          11.94377027474349   -2.11740761754195   -5.19228604203733
O          13.03320944319241   -2.63644537232725   -5.27066647852783
C          11.27940288717745   -1.62126799415010   -3.95217874252564
C           9.90433211971963   -1.30373600114463   -4.28562405897958
C           8.84138262387726   -1.30695074325170   -3.42255960385342
C           8.95771104897959   -1.61717767434808   -2.05122812929815
N           8.99705660526348   -1.91749900961844   -0.94456341896237
C           7.50879578605111   -1.08516998957058   -3.82456321207401
N           6.41378481762329   -0.88786373977025   -4.10638644460917
C          12.01902038885316   -1.46232137910279   -2.82639883024815
C          11.75587712398479   -0.67798286830932   -1.65218886996563
C          10.91806837274103    0.45788665458351   -1.69768946728199
C          10.69662596921404    1.25683574204848   -0.60398644533366
C          11.32900664004972    0.90627609345701    0.58685456933202
C          12.18546151873022   -0.22414207302789    0.63192187095162
C          12.42469712300210   -1.01148895103164   -0.46646794599636
O          12.69343141829786   -0.30511238709575    1.88677188679480
C          12.14682994619932    0.75518865231913    2.54450469233698
N          11.33629767345015    1.48587550696722    1.81183955774329
C          12.46565487842584    1.05470742059110    3.88023471140187
C          11.90518159267591    2.15862488323734    4.47008670844254
C          12.14314732930515    2.66072246441219    5.77728199881069
C          11.45182157418796    3.79497268372537    6.06562884750879
C          10.61737693957583    4.22787584976407    5.00656483310146
S          10.76447310346431    3.15908146993636    3.61493591579066
C           9.77266640427863    5.31626509617913    4.98928243011480
C           9.59861931465633    6.32104045425710    5.97387230982079
C           8.68297844211238    7.26429987982168    5.63903174947672
C           8.04480945998622    7.05738920885026    4.37907241534212
S           8.71228683911749    5.61133944067480    3.63282716857450
C           7.08745422895835    7.88607135627514    3.86675413636992
C           6.29468839201689    7.77555085632513    2.68172150961640
C           6.24477691498454    6.59819741046599    1.89475381721274
C           5.43694866544520    6.47247915693686    0.79524026729716
C           4.64319551438353    7.56538983055673    0.44844433344007
C           4.70141208155455    8.75712066312826    1.21709631812992
C           5.49909383603855    8.87837136675380    2.32857045379654
O           3.84177498734265    9.63830725473704    0.66010665037469
C           3.27566183960589    8.95931412547118   -0.37832243137461
N           3.72896504459545    7.74339580232199   -0.53549675236137
C           2.33468546800741    9.62469109079070   -1.21094069126530
C           1.50448834721313    9.04649573284570   -2.11206371853124
C           0.88812066868612    9.86945127060236   -3.19636034686461
O           0.82388394185424   11.07540396881806   -3.23875436072567
C           0.44543230918921    8.89452511280862   -4.20915990068747
C          -0.07729521963327    9.12505046644660   -5.44999831153202
C          -0.41505789498252    8.02676709767005   -6.27129679835029
C          -0.19419719315416    6.70203957383991   -5.79192818086279
C          -0.52849605488415    5.61148271302407   -6.61833246937857
C          -1.05941554543585    5.84547835468739   -7.85628218720097
C          -1.28511348547617    7.13990315090579   -8.34512987749544
C          -0.96439243470816    8.20994320203675   -7.55728574474811
F          -1.38214420618866    4.80617680641625   -8.64607797024863
C           0.34527489271726    6.49223096219698   -4.50162897259434
C           0.65170029880020    7.57181860128910   -3.71773920316325
C           1.16338369485114    7.65659223088966   -2.35322958967950
C           1.09015268863853    6.66561746940370   -1.41537202833188
C           1.30950213973719    6.86445820754403   -0.03516538693394
N           1.38065548839323    6.97811638816536    1.10457608099912
C           0.66538216263401    5.35076492137718   -1.69985136163265
N           0.33136185445000    4.26871340246736   -1.88537026710183
H           7.05635059502983   -0.06353408226653   -8.46208983892019
H           9.42960691185116   -1.19055785355391  -11.82442783966934
H          11.23713043394245   -1.97237237271890  -10.31333808358925
H           7.89518636868158   -0.39972825668846   -6.18651503120669
H          12.12273477741669   -2.29998978865740   -8.03085120638740
H          12.98984236125687   -1.94881014620851   -2.85711326240342
H          10.47330510766990    0.73052990428095   -2.64325257310838
H          10.06655193260817    2.12940779564933   -0.65104939938803
H          13.07934460906227   -1.86674062692504   -0.41775913944027
H          13.16038930149691    0.42419313265711    4.40943629329511
H          12.82051277352298    2.16618213437407    6.45083201893624
H          11.50772669093124    4.31588121027094    7.00503796732121
H          10.16327547552956    6.32095460201317    6.88876721039672
H           8.42322306340369    8.10473733816410    6.25848307947608
H           6.88720323143090    8.76858699134074    4.46346556789398
H           6.84264993641522    5.75249562714180    2.19049976872103
H           5.39372414823978    5.56135834166554    0.22219352628187
H           5.51268776861665    9.78665732464200    2.90972355409740
H           2.34539862443802   10.70714752002756   -1.16609086374799
H          -0.23286927615372   10.13445199486977   -5.80038654841146
H          -0.37131124837802    4.60161085249184   -6.27310992599038
H          -1.70631897994307    7.26257432365792   -9.33034542196819
H          -1.12936724901931    9.21618602010503   -7.91197621093434
H           0.51122041008858    5.48070319746062   -4.16666994650679
