108
 SCF done       -206.922372040288          0.000997188064
C          18.77963661207732    2.03570142625676   -4.01140300197800
C          19.95369874023942    2.23330003060529   -4.68329573502225
F          21.10726788886904    2.31169546806220   -3.99365269847722
C          20.01222808834767    2.35487398068941   -6.07773508259726
C          18.85274341242251    2.26459541747667   -6.79682128104296
C          17.61494519242519    2.05682885887089   -6.15555790830973
C          17.57466253615781    1.95123282101867   -4.73427512208414
C          16.33926171974572    1.76098444667649   -4.06975375938161
C          15.19184540414537    1.65457009013209   -4.80628361875219
C          15.24425746341627    1.72296586861395   -6.23009666302234
C          16.41687274616097    1.93299258412475   -6.89459103456654
C          13.89547914421937    1.49320586630713   -6.78202030119936
O          13.55019129744955    1.50653480229789   -7.94171941826363
C          13.05458189773488    1.15421321720651   -5.60398090587662
C          13.80005031809005    1.46798483425537   -4.41035279578452
C          13.24715667324964    1.78936488989215   -3.19322191887437
C          11.85243192100322    1.87474867248717   -3.01715540960367
N          10.71659578542740    1.99868142492533   -2.89075291640294
C          13.98036204214944    2.17074687002023   -2.05719880643554
N          14.52091680741283    2.48199514340657   -1.09226866057804
C          11.85075795126279    0.53848846917785   -5.78761385451508
C          11.12584670142796   -0.27052984823074   -4.88997302626510
S          11.85498457831580   -1.05972984430726   -3.51718656666907
C          10.38916199039559   -1.93711802971577   -3.17595750729081
C           9.39025603527158   -1.61863798768113   -4.10411095076042
C           9.79100918822791   -0.65943611903903   -5.03078716847749
C           8.85334356121471   -0.02103836412991   -5.99958389019821
S           9.04742996934564    1.81880034573969   -5.99402594173957
C           7.40541099701583   -0.38623381614032   -5.68445282611706
C           7.28751499402535   -1.87769013416713   -5.40000339171962
C           8.00775319490896   -2.22481123238530   -4.09279231018084
O           8.02499754382783   -3.61800836478247   -3.86509676940878
C          10.25988342824158   -2.80339025228225   -2.08299785673021
C          11.03858233709253   -2.83963436907252   -0.95154360286659
C          10.82852487791356   -3.70669911029766    0.14830313891764
C          11.60397964432935   -3.43106295390186    1.23378854298459
C          12.46221127878540   -2.32570774763775    1.05211231291960
S          12.32068638883826   -1.70123716176002   -0.57629083481699
C          13.24118482042089   -1.70500439686774    2.01629318491187
C          13.39655614402229   -2.08445153214516    3.36535394768412
C          14.10137021843074   -1.18456199202378    4.10913060667735
C          14.54982183638859   -0.05362565048823    3.38740538967874
S          14.08166358393137   -0.20413479567022    1.70297431022323
C          15.08612271259100    1.07538633160676    3.97579003162349
C          15.52806530515171    2.25944472741091    3.38191167020583
S          15.36315677039749    3.73517794411788    4.28950404182013
C          15.89280541063943    4.72799197407331    2.96584638148225
C          16.27746991981471    3.91769561610831    1.87151451155229
C          16.09154023680712    2.52717017272471    2.11005380766096
C          16.56832541041027    1.59177514643586    1.18200980508577
C          17.12283942751685    2.04468797628329    0.01780693777187
F          17.59662784462724    1.16253275756425   -0.87988698669810
C          17.22669169497831    3.42059370537131   -0.25804397331828
F          17.75983170083563    3.81281665163677   -1.42620867554853
C          16.82588266594658    4.35455836469920    0.65665258797132
C          15.91378194504682    6.12140912124748    3.05156631285266
C          15.49692105362669    6.83222863878063    4.14823285486780
C          15.52701847426663    8.22917451043441    4.20253128924234
C          15.17203322540647    9.03430766832503    5.25677989640407
C          14.85651092257949   10.46149953520894    5.00489532760554
O          15.09762593324992   11.09228798446257    3.99852647554698
C          14.14166188209674   10.92190530420682    6.21204651337152
C          13.53784477825540   12.12207495165328    6.44832836942191
C          12.86564663217494   12.32631020911994    7.67485142918783
C          12.82995989710954   11.27262348634986    8.63325993984732
C          12.14858827249514   11.47750459405333    9.84851867247863
C          11.54125000539844   12.67959517384399   10.08318566730499
C          11.56736304796963   13.72881076737204    9.15510614584092
C          12.22337255098915   13.54597003428402    7.96935012363333
F          10.88909696409306   12.87685481284988   11.24479681777713
C          13.47378485501734   10.04145625101671    8.36403682984414
C          14.12586923322088    9.87089882395494    7.17370107974095
C          14.88701684243162    8.74148276610695    6.63757972322697
C          15.39524658977356    7.71078323258060    7.39180948203424
C          16.35904518945589    6.78581440563613    6.94290671098793
N          17.17371735837368    6.02781645322321    6.65787233695580
C          15.09610581899960    7.51600293576513    8.75465654596805
N          14.86898245167378    7.29075327734380    9.85778923007482
H          18.77695007262419    1.94492539220572   -2.93872769955325
H          20.96748760269812    2.51211474479585   -6.55315635464812
H          18.87119623428734    2.34851626898516   -7.87311822243322
H          16.33065343642039    1.67944530530680   -2.99544472465682
H          16.43295812192576    1.99594740710471   -7.97239448183717
H          11.45908746249544    0.59583830250725   -6.79842173340873
H           9.10746016579991   -0.30361509821272   -7.02679200804304
H           9.17778144678759    1.95534351457655   -4.67547973300431
H           6.77011642651544   -0.10190131064599   -6.52344729781442
H           7.07666885078256    0.17585861808527   -4.80742492270478
H           7.73885828570215   -2.44616511981747   -6.21903894089298
H           6.24068998644979   -2.17204438355301   -5.32021407227778
H           7.44533345618208   -1.81664551211917   -3.24234105310373
H           8.45557746207446   -4.05002961479386   -4.61236934035850
H           9.40607051677736   -3.46818979956508   -2.10797035742540
H          10.09443377659523   -4.49140031540374    0.10550584679611
H          11.55530017313766   -3.96914325238224    2.16290864077226
H          12.97448529490024   -2.99184822127645    3.75705839135602
H          14.30194713619921   -1.29162100069404    5.16038268230171
H          15.03781950364244    1.09006401167469    5.05868753875406
H          16.52722616792120    0.53327928076918    1.37172932431708
H          16.94837095483863    5.40157298191456    0.43511252487817
H          16.29394513862157    6.66253560707630    2.19581012541984
H          15.10144020516047    6.28111298111379    4.98975256136064
H          15.77380196434906    8.76000732489696    3.28864855247174
H          13.56923785610644   12.90716498166289    5.70769610732565
H          12.11085046676525   10.69276152564504   10.58790180823603
H          11.07044620705965   14.65534606825456    9.39531818381890
H          12.25700542704756   14.33936462617710    7.23782005265255
H          13.42387022699451    9.26034656068115    9.10591278935499
