90
 SCF done       -172.627383337505          0.000485268775
C           2.29899456473195   -5.72614486396031   -4.25522102975292
C           0.97430004083834   -5.93037251903340   -3.98476562120489
F           0.33295850911794   -6.96484195450250   -4.55859800486337
C           0.24588477701664   -5.09816357877350   -3.12445352650154
C           0.88056633838057   -4.04179773792992   -2.53190622349309
C           2.24478160057084   -3.78435622312990   -2.77587236564981
C           2.96741532043973   -4.64146287124860   -3.65583452332576
C           4.33553964919232   -4.39829409779840   -3.92373824779796
C           4.95598632428789   -3.33485749323300   -3.32764265575650
C           4.23313460290603   -2.49172837197323   -2.43502775827205
C           2.91197228180930   -2.69854549196764   -2.16431065030257
C           5.14212871792787   -1.45848974959512   -1.90295038064841
O           4.87490265235884   -0.54138066900418   -1.15848420793171
C           6.48728861385630   -1.80883918065661   -2.43099974111920
C           6.32522495846074   -2.83364629844789   -3.43068235155126
C           7.20021360828584   -3.13294750089106   -4.44837398208465
C           8.41083187293530   -2.45187043024710   -4.66713812503692
N           9.38792961776611   -1.89737771920280   -4.90769018680858
C           6.94186096541763   -4.08779297120498   -5.45122789562696
N           6.79223710623276   -4.86392628296329   -6.28387362575549
C           7.58548461582025   -1.17353518519336   -1.91420376254000
C           8.93915876182616   -1.54478973524314   -1.94102277521932
S          10.14648610347501   -0.30694944079875   -1.77119968527535
C          11.45766445017541   -1.41206306031004   -1.94700083573625
C          10.97753123884763   -2.72958012400317   -2.06876058137984
C           9.55261530081687   -2.80721941588850   -2.05501532993275
C           8.92394329753442   -4.06474644548882   -2.07403003359336
C           9.69361778468802   -5.18881410163312   -2.18873184896387
F           9.10848173452124   -6.39495260565309   -2.20547849325356
C          11.09954915480501   -5.10666224117893   -2.27504342703688
F          11.81327030038478   -6.23644323352168   -2.39851765034343
C          11.74101367230465   -3.90276136970662   -2.19907674574450
C          12.81093656805927   -0.99282350043428   -1.95710587247900
C          13.21024282561529    0.29950916984260   -1.98385032054076
C          14.56899885383252    0.76328595729609   -2.00167367499742
C          15.64208512412218    0.20880028904206   -1.41330060866668
C          15.60660954664881   -0.96139803514312   -0.48583713669484
C          16.99881664140626    0.85971383569810   -1.56340469315140
N          17.28923442532074    1.71243523772534   -0.43296080420126
C          17.95539406259195    1.30883334167921    0.66634707554558
C          17.99540018774822    2.00945075293639    1.83331092975853
C          18.74277501078427    1.61130491576714    2.95311649461512
C          18.82566366368461    2.32195062832368    4.12296300297476
C          19.53581746916666    1.96982505051505    5.29477224455352
C          19.44564638755117    2.88148800527164    6.30236936679182
C          18.66269966747567    4.01456109610712    5.98324375417932
S          18.02949957363294    3.87706859671879    4.36190667838166
C          18.40128264375901    5.11478128721807    6.77720146909375
C          18.82762491319316    5.35409368194518    8.10077931902477
C          18.40911061120903    6.54594027460639    8.60840049459665
C          17.63035576394650    7.32189204629407    7.71218461229816
S          17.44208935406499    6.46714017158018    6.19560681690747
C          17.10337187227908    8.55921918588960    7.98131410628449
C          16.34661132381831    9.37215563698434    7.12321859189290
S          15.93268627193896    8.94386310614373    5.48463234913712
C          15.09160250756186   10.42079378231535    5.25244845783992
C          15.11745022999830   11.21219653261707    6.36789678247844
C          15.82415937846472   10.62957882396943    7.43493750584012
S          16.06634084893562   11.32722188750925    9.02550078052365
C          15.26116902047884   12.89413034717653    9.10280353516071
O          15.32217591621796   13.47872315105760   10.15222719797294
C          14.52566966411701   13.53535547670030    7.94575501905236
O          14.03956931988437   14.62369193729401    8.09440826253349
S          14.32369060816500   12.78537736832005    6.35938235549129
H           2.82791992975731   -6.38579944389970   -4.92522604670939
H          -0.79711993724199   -5.30856557648944   -2.94853773287380
H           0.34060632928610   -3.38697059595840   -1.86459773383825
H           4.86044589880203   -5.06766223606314   -4.58676593161767
H           2.38059142657751   -2.04296662809592   -1.49082086647839
H           7.35623233132277   -0.26051138127333   -1.37115469895213
H           7.85623851976288   -4.16197677863145   -1.97007240644600
H          12.81731293056576   -3.87338979547647   -2.23675270055479
H          13.54732985609262   -1.78060624136164   -1.99924830881003
H          12.45033862422055    1.06755234134792   -2.06491561300949
H          14.71605913154240    1.68717359579434   -2.54986900032230
H          14.60738680025415   -1.12268708946871   -0.09011722492406
H          16.28918938723045   -0.79224384816301    0.34704862521456
H          15.93069523934917   -1.86799137656019   -0.99801160648624
H          17.03237613382041    1.46780354686735   -2.47182595251799
H          17.77762491231054    0.09565764152106   -1.62386906539438
H          16.68894896193426    2.51840048957534   -0.32632941846036
H          18.52885588548412    0.39761673816047    0.55644522289588
H          17.43029717592210    2.92861176926220    1.91434700776680
H          19.29169994722162    0.67999251094188    2.89855552938524
H          20.09217078212892    1.05076867393834    5.35552519426249
H          19.92289777022976    2.77482254865304    7.25969040918606
H          19.42685905954017    4.64450242388818    8.64252078550608
H          18.63481722856313    6.90091825651238    9.59813653257773
H          17.29154135744415    8.96812350149426    8.96557859147617
H          14.62200552426628   10.63909987904294    4.31591458923347
