113
 SCF done       -204.241309612533          0.000734567247
C           3.80093642535939   14.89318457551432   -3.22652877938929
C           2.45362283941871   15.07715433317726   -3.08538790435869
F           1.95533089612284   15.43043504585031   -1.88381547437419
C           1.55669484096959   14.91242478944583   -4.14821747669452
C           2.04446827600978   14.55161402395346   -5.37405153874621
C           3.42385888361649   14.34529165621239   -5.57522350386604
C           4.31938374204018   14.52180863851608   -4.48173124697972
C           5.71008296361729   14.32921400080637   -4.66183135815504
C           6.18204758194515   13.95964944106097   -5.88981104817779
C           5.28132180096440   13.77354065083702   -6.97628540156483
C           3.93856442259981   13.96548268900726   -6.83695458601732
C           6.05045419455712   13.35751665775340   -8.16731120661949
O           5.63361876625683   13.17044503667687   -9.29063992871612
C           7.44472660826504   13.17602760697912   -7.69376868710630
C           7.54056109534734   13.69734185631513   -6.36550210120175
C           8.69109838800293   14.08402407424774   -5.71061969650140
C           8.71514144066012   14.68104652402055   -4.43803070160124
N           8.81014632360944   15.17031470718116   -3.40271818273975
C           9.97397106902620   14.04443139894861   -6.28374165173164
N          11.04020440506592   14.04873378655057   -6.71243364825802
C           8.35824000609025   12.58798544073380   -8.54854915038002
C           9.55013172336583   11.91186460188857   -8.30620634343471
C           9.99332671883971   11.29427389357495   -7.14932272614860
C          11.21953791713080   10.59723416187212   -7.03649663061516
C          11.39350218326872    9.94703560524785   -5.85183589704953
C          10.29847192935454   10.07064356961572   -4.97168295046505
S           9.07058869859749   11.10140410168346   -5.67834220376667
C          10.13391072423899    9.45309941869139   -3.74371730383103
C          11.05551262420362    8.61365235590798   -3.08063655086243
C          10.57923956518107    8.08484057257589   -1.92023360553116
C           9.25440230781113    8.47009077770202   -1.59436012776440
S           8.65131732966682    9.56875143495685   -2.82448457586411
C           8.57693459500570    7.98624745084570   -0.49947536296626
C           7.28154959710912    8.21206703612948   -0.01866216732811
S           6.78053986982121    7.19865439069523    1.34161814128308
C           6.23074548613951    9.06483252854852   -0.33982512223381
C           5.97959365416991   10.23484412259897   -1.24317949606684
N           6.73692314031421   11.36544751642671   -0.75999972635834
C           6.67049162202414   12.53890560928104   -1.61424031336967
C           7.33926335531774   13.71029808967969   -0.91277360467152
O           4.58946626462231   10.50056859710248   -1.10490078860685
C           4.05984811605877    9.89357233911660    0.05901934082890
O           2.85345036833863    9.26077773101925   -0.22476646099478
C           5.11371047637127    8.91206299297721    0.47024499205692
C           5.20001229752431    7.93277140193448    1.44414771746425
C           4.20272690793230    7.56260162649488    2.36393537857535
C           4.38505159172269    6.64124540670821    3.35126952388596
C           3.44489006929784    6.21057230080712    4.30597562031363
S           4.05575303855236    5.39229113402904    5.71456473644759
C           2.49582740794924    5.26340749419033    6.45387929524836
C           1.51255769140002    5.80330005855500    5.60299943992595
C           2.04275188146239    6.32846822798531    4.38335850105306
C           1.15863242275304    6.82759568389868    3.40807457608484
C          -0.18183574680357    6.84583418528832    3.67232271984367
F          -1.03513203533032    7.31423844668293    2.74817935614142
C          -0.69727925069880    6.36997882277411    4.89713622707518
F          -2.02176003593698    6.41698255027626    5.11078328291412
C           0.12832590510830    5.84529919883875    5.84936473518536
C           2.31013241951739    4.70397951156237    7.73273223659722
C           3.30443892325349    4.20321521063378    8.51223899258623
C           3.11527885055465    3.66963291795973    9.80682491425197
S           1.55579080812645    3.63554202904471   10.60781535666373
C           4.05402168744251    3.12781735036004   10.65743914919301
C           5.50575541686952    2.78506225694224   10.57282973406360
N           5.72046359356965    1.71627536175216    9.62423066418437
C           7.12272137875658    1.41596399855199    9.39192704453568
C           7.25542004748451    0.27002454537786    8.40186786079888
O           5.83610337925462    2.33094441141369   11.87941362117334
C           4.69103443615785    2.14120375629176   12.69174417876993
O           4.86722256189560    2.80654706628789   13.90556933226732
C           3.55345693285781    2.70891102352327   11.89481144696215
C           2.20350157233189    2.90829029312761   12.05660478369995
C           1.31978727276459    2.61942702702065   13.14967302434149
C           1.72101364125293    2.23656911614987   14.36052334299608
H           4.46282738596909   15.03429216199094   -2.38635548963231
H           0.50396382995569   15.07380737473731   -3.97812504732558
H           1.37285968785845   14.41865901380078   -6.20897215012281
H           6.36432330925474   14.47033397373618   -3.81761831103206
H           3.27331396538300   13.82892185318973   -7.67641086896669
H           8.04229717571452   12.61257700728241   -9.58834928274733
H          10.18817500627733   11.75305289589693   -9.16698142189340
H          11.93856043107807   10.60706805053329   -7.83566316082390
H          12.26665718314284    9.37300408830876   -5.60064948782308
H          12.03686256546649    8.42213078615814   -3.47414419146306
H          11.13545987475547    7.41807058754105   -1.28532790296153
H           9.14178316663058    7.27101447184456    0.08834835426709
H           6.14070877434288   10.02634355983295   -2.31747978404330
H           7.70387534356435   11.09891396195702   -0.60549963133434
H           5.61038348947344   12.74172919073634   -1.78405762754751
H           7.14508249679488   12.35421747677884   -2.59420982281405
H           6.83650705175730   13.91618544664764    0.02814806398062
H           7.31466845502157   14.59899637882871   -1.53645620294399
H           8.38150410616369   13.47829588783625   -0.70586308601433
H           3.90640798546393   10.66824556110723    0.83912747890632
H           2.34778395190519    9.83556019876372   -0.81102159627700
H           3.27182806007336    8.09466274156389    2.24871343059362
H           5.37975852970257    6.22241118500870    3.45931187615521
H           1.50479677720566    7.16750905276278    2.44741679430524
H          -0.29021230577926    5.46454526408528    6.76613771562292
H           1.29906413684329    4.68486066482938    8.11551067938934
H           4.32403602608904    4.21433488676720    8.14656039837730
H           6.15159693381456    3.66589095084563   10.36767737986759
H           5.25139286103037    1.92780551530112    8.74938312801882
H           7.54795310259231    1.13420571983858   10.35779406476212
H           7.67291272842657    2.30056080877793    9.02323564383942
H           6.70519887063691   -0.59469652277971    8.76160180416495
H           8.30082036317213   -0.00058924723872    8.28099920218843
H           6.85535600953350    0.55543796135717    7.43083965671340
H           4.55414258376211    1.05614252755788   12.87685716214252
H           5.80140475394314    2.74595358762933   14.13708513932570
H           0.26722572348589    2.74596401023152   12.93086695195674
H           2.76432792087246    2.14594338510879   14.60413409285607
H           1.01073338553458    2.02972933540709   15.14169201283509
