107
 SCF done       -216.143105935157          0.000985095775
C          15.36668567257042   -7.80859520369924    5.79794671240854
C          15.61834424208366   -8.61385683065318    6.87396853316177
F          16.84616808542808   -9.13924618853458    7.03444944124862
C          14.64006737423893   -8.91813231553469    7.83021704862035
C          13.38669041068331   -8.39170327748692    7.68443872047438
C          13.07240912829364   -7.55470716533295    6.59428663322377
C          14.08095788693461   -7.25904282682951    5.63120302165586
C          13.78686869317775   -6.42952649783630    4.52324445774711
C          12.52794581526634   -5.91170460014955    4.39007982602507
C          11.52800229932727   -6.19706925125240    5.36474963146554
C          11.78176739405180   -7.00075906104994    6.43815210467384
C          10.28400331911109   -5.48942177261395    5.00682750003834
O           9.21312273941300   -5.52766562507630    5.56966635384341
C          10.63864664566731   -4.65166618789011    3.82951591683538
C          11.93226754845734   -5.07358045890764    3.35216426155009
C          12.39774460527633   -4.95377813195478    2.06633350774103
C          11.62832714002259   -4.39866006870986    1.02538605500609
N          10.99675550521566   -3.99089257879472    0.15715259582055
C          13.63797411738345   -5.45872756829011    1.63056316531103
N          14.64943809396133   -5.83215430888360    1.23630308806118
C           9.79987062134389   -3.63255165342639    3.47227937750472
C          10.05011350259519   -2.45616256688553    2.74997664727853
S          11.63703184188181   -1.81297630958306    2.46909310204253
C          11.04044644866592   -0.34055591337824    1.78959712101984
C           9.63329626572827   -0.36885788598956    1.70736992537237
C           9.07575115762023   -1.55188191322092    2.27740793958521
C           7.68412912697585   -1.74533019360133    2.28364544410860
C           6.88236528328624   -0.79312540607134    1.71874744008081
F           5.55354275274816   -0.95273164062214    1.71657478044450
C           7.43486470896095    0.35183573847262    1.10496722570242
F           6.61610264014501    1.23560881054796    0.51714273458231
C           8.78453769265520    0.56727543471380    1.08932655627116
C          11.97264774828944    0.66721073487311    1.45398290550197
C          11.71162808084973    1.99821628701545    1.35890079780593
C          12.67809498439425    2.97405688942512    1.02283379545665
S          14.27780789629193    2.54871625554059    0.49338360101142
C          14.74912940505637    4.22154569860882    0.34765155528746
C          13.69606390952727    5.05933025219727    0.71114672286866
C          12.53614836888090    4.35805041489898    1.06720596357321
C          11.25913726240087    5.05530379039527    1.43827809400742
C          11.24922736983031    6.40661584133963    0.75668347840577
O          10.43285449979301    6.76821177540955   -0.04159555827962
C          12.47075730253038    7.20065464368523    1.19157149073011
O          12.42286367073550    8.19365108621759    1.86431271713313
C          13.76262712771003    6.55687007989021    0.73451777997690
C          16.05833082122247    4.46733489717165   -0.14090619695693
C          16.69941313825959    5.66174561735452   -0.22850135902407
C          17.99621802044150    5.88688263960940   -0.75551660222102
S          18.80653007444146    7.33591743349802   -0.25776051883742
C          20.20401313723416    7.02383602715811   -1.22792372204035
C          20.06392145688242    5.79527630489993   -1.89404342284181
C          18.80454922959438    5.15934090974851   -1.64741537695702
C          18.49856412078447    3.96041900667324   -2.32193759373865
C          19.44732166035634    3.37817977362249   -3.11223117363120
F          19.16610458039097    2.23586892255833   -3.75375500936424
C          20.73586054450703    3.94375529922872   -3.25072627627736
F          21.65829688387222    3.29455001079444   -3.97195246904008
C          21.04397528573971    5.13532730227087   -2.66367686925494
C          21.27552493762836    7.95808441898905   -1.20393941546082
C          22.07045291597371    8.34889612162254   -2.23940686139058
C          21.83204746375361    8.02566673455833   -3.59381134717465
C          22.52096311433036    8.40958317726022   -4.70594483622185
C          22.25343144553382    7.66762167290038   -5.97238664268690
O          21.31403535564702    6.93500332512033   -6.18624123568202
C          23.39368035723477    7.97310640728947   -6.85225078818700
C          23.68896728114396    7.46405905479045   -8.08424415933453
C          24.86448354342667    7.88931508187770   -8.74173229443456
C          25.72214877194980    8.82894456540480   -8.09853051768012
C          26.89576478356809    9.24504617549523   -8.75639136470290
C          27.18328833581914    8.74492877574584   -9.99600847658006
C          26.35191056214924    7.82219167054133  -10.64583309375116
C          25.21049546644835    7.40474733221620  -10.01994392304705
F          28.30163239025951    9.14371169326379  -10.62727387812562
C          25.38992893291813    9.34056686435539   -6.82224109804222
C          24.23615353025216    8.92829907691542   -6.21242374818480
C          23.61951786586071    9.31945818583753   -4.94481413791827
C          23.90560189610993   10.47490888539263   -4.26488784098363
C          23.12122040584540   11.00970199577132   -3.22238046646707
N          22.49617746934726   11.52014346698172   -2.40568623486836
C          24.96630571651287   11.34150096535149   -4.60381512317017
N          25.82159529579156   12.07622118346413   -4.81933685299434
H          16.14344205593684   -7.59926669794424    5.07916338356634
H          14.89665905552302   -9.55959421923243    8.65828717390762
H          12.61619923054888   -8.61169446552085    8.40796778402211
H          14.56914037177380   -6.21618513502166    3.81187835098171
H          11.00771152102965   -7.21239358248630    7.16047447006626
H           8.80903379713793   -3.70371236948867    3.91174864854128
H           7.24108792083729   -2.63150192538803    2.70697401892547
H           9.17290495451586    1.42395937149110    0.56585772385057
H          12.99729274194100    0.33749643170745    1.33067846965980
H          10.72856382631835    2.36838177892077    1.60643477245573
H          11.21485270550729    5.20735854170984    2.52208078899820
H          10.38311096585240    4.48497108208542    1.12614392568152
H          14.56253186845366    6.90824670818893    1.39310824127530
H          13.96677686880995    6.93420554732137   -0.27457588449458
H          16.58740578056484    3.57295774947912   -0.43661420565132
H          16.24197129981897    6.54454124371170    0.18966417002823
H          17.52903235784117    3.49991366170957   -2.24545509638317
H          22.03091422366536    5.55090684891519   -2.78210979099350
H          21.42453343969632    8.45791267453260   -0.25430605634521
H          22.89015693345049    9.00992486904849   -2.00537008350298
H          21.00117215879724    7.36199598630904   -3.80623896641023
H          23.03185259771059    6.74653729990094   -8.55219748950437
H          27.55706296506991    9.95709336051243   -8.28786682807501
H          26.63053888803827    7.46261401785550  -11.62362816398853
H          24.55438044512565    6.69449476057365  -10.50002977605924
H          26.06359782560895   10.04228521077583   -6.35682883614558
