114
 SCF done       -198.139607379745          0.000613272397
C           2.02699619356841   -2.95387918247205   -1.85076981200711
C           0.78947978587377   -3.46769755143991   -1.57943908280019
F           0.10891617516430   -4.10633482801307   -2.55182033663077
C           0.19013141645694   -3.35787579191366   -0.31848356194173
C           0.86670108053260   -2.71367820790073    0.68051730698843
C           2.14543590130245   -2.16586427716777    0.45632294160489
C           2.73612900121825   -2.28564026864991   -0.83441727906639
C           4.01609060749215   -1.73586630827601   -1.08664685135574
C           4.68051126586591   -1.09632061452331   -0.07726847526750
C           4.09368356594957   -0.99713514855322    1.21655435234275
C           2.85782939599640   -1.50659264764559    1.48504523314389
C           5.03959469625524   -0.31164893050605    2.12190944471644
O           4.86613689537795   -0.01020527765177    3.28402426056555
C           6.27154185659681   -0.11133387609410    1.32507805161348
C           5.98249468983624   -0.42948399834484   -0.04447825347979
C           6.67399124212197   -0.00348409529551   -1.15796033440484
C           7.77767358353117    0.86503521965742   -1.11265614125710
N           8.65513863048538    1.60714052169047   -1.13653074371881
C           6.29829070908584   -0.30040031279214   -2.48067087013934
N           6.05283710563206   -0.52066580924752   -3.58150773082081
C           7.41870872540232    0.30124223637950    1.96842544249016
C           8.75317459696917    0.20170669090065    1.57699031031442
S           9.92565008536277    1.26846181318712    2.30282612143963
C          11.21074755775853    0.72979844114346    1.27821148517338
C          10.78165744889680   -0.36514538631791    0.48833151772133
C           9.39755806704471   -0.66001868771337    0.66000672402914
C           8.83670455913115   -1.78018369307627    0.02745741942031
C           9.62277955492845   -2.54594572341775   -0.79183519646568
F           9.09799630962709   -3.62295281562073   -1.39710131879048
C          10.98415787613538   -2.24769762213585   -0.97348456633065
F          11.73331914846463   -3.04413299917191   -1.75514214495054
C          11.56897519206015   -1.19030138217560   -0.32770856863953
C          12.43959896201725    1.40796821058539    1.32729656517682
C          13.35941920125396    1.43294408542519    0.31645192351477
C          14.60633219613453    2.08196897866308    0.30611237848093
S          15.51539428216509    1.99606522057064   -1.18959097346880
C          16.82733138113349    2.93819428420592   -0.53575806810446
C          16.55199166638850    3.28178776668490    0.79174346061289
C          15.30908385159227    2.83277665111011    1.25043731482114
S          14.68511077764990    3.20408358003160    2.86457021747489
C          14.45437622874921    5.01361951360408    2.69256469272547
C          13.35219289459742    5.34262653258920    1.70714235148155
S          17.70812471567611    4.22967141663712    1.73338644705903
C          18.13658927760686    3.00658201394559    3.03889202162768
C          19.01205330268915    3.67006144380305    4.08144696472161
C          17.97200183636462    3.24204723660751   -1.28133890901622
C          18.12010376440482    2.90505368913121   -2.60412266497757
C          19.24803776290619    3.16577258094626   -3.37961699301824
C          19.30153303226574    2.84865442056979   -4.72208954800745
C          20.39118134415907    3.05565678685590   -5.55353311453718
C          20.38662713935657    2.76225253171177   -6.90990519535558
C          21.44594741846248    2.90194989140575   -7.82366964628983
C          21.13218012426958    2.53975294458150   -9.10805541989183
C          19.80646979108772    2.10734824736406   -9.26554643616805
S          18.96656601128728    2.15441712531842   -7.73309152558712
C          19.15889763409573    1.70362069290943  -10.42839232611912
C          19.68838285957230    1.59379613231189  -11.72754545384999
C          18.77605090010650    1.18565756437164  -12.65876156239309
C          17.47768184484293    0.95756759431826  -12.14902080633598
S          17.47086853199640    1.26956429972456  -10.42091328195093
C          16.38433085141742    0.57164300876355  -12.89037056677819
C          15.06232325910452    0.35945804436984  -12.46413817063895
C          14.50337517467180    0.45729648220277  -11.17673692482078
C          13.12729633966815    0.17239765484498  -11.26059116839825
C          12.13751870067457    0.14138244898269  -10.29201021751241
C          10.83954545937006   -0.16865058945302  -10.70087490219852
C           9.64247712585541   -0.27380342783684   -9.99294726201273
C           8.59418877755161   -0.61067083586950  -10.89350939065023
C           9.13886745427825   -0.71950158230843  -12.16762886149104
C          10.53614860392470   -0.45167081219058  -12.09424161696363
C          11.51229140958277   -0.42817445447621  -13.05806530653781
C          12.82457843966787   -0.11377922084450  -12.65249868698178
C          14.00472149020146   -0.00038885297822  -13.36466173179099
C           7.22016574210002   -0.79146685274471  -10.48735512967313
C           6.20869436197003   -1.08717516063490  -11.29924150232783
H           2.45717520746721   -3.05518752288688   -2.83493411881023
H          -0.78874093561465   -3.78291596821296   -0.16255036101222
H           0.42597928527812   -2.61702491317659    1.66150454625202
H           4.44214738319510   -1.84622937860293   -2.07126268418975
H           2.42698966851433   -1.41240129302663    2.47061282207815
H           7.24252095919498    0.73928532851569    2.94696785367819
H           7.81715538369329   -2.07637474438952    0.20829122609974
H          12.63047927807813   -1.04161432988081   -0.42774173200392
H          12.61452526651496    2.00462549522074    2.21099966650262
H          13.10593122591457    0.95728569610955   -0.62075373897854
H          15.40899855701014    5.44427286105884    2.39366937859905
H          14.20445573253358    5.34594649898923    3.69931663842987
H          13.59957189837608    4.97171148057070    0.71389957629363
H          13.22466301571758    6.42166742249117    1.64926707328069
H          12.40968068510043    4.89620122863730    2.01706895436251
H          18.65579657845258    2.18598227811923    2.54245857487371
H          17.20514102550016    2.64659980697349    3.47301178151467
H          19.92515610951893    4.05215223501176    3.62972590609581
H          19.27737790160016    2.94743752127009    4.85016536717097
H          18.48483679331819    4.49908672878090    4.54831338660784
H          18.75571280964479    3.78184037283592   -0.76741633506725
H          17.29111879576079    2.40156759615839   -3.08862126296960
H          20.10288390567225    3.63697938702669   -2.91280319955280
H          18.41934310425344    2.40386369162939   -5.16822486604671
H          21.30256583357588    3.46666321222299   -5.13968417549238
H          22.41154827959090    3.26295932984778   -7.51606214311697
H          21.82166676785409    2.58379420155744   -9.93202275128139
H          20.71771667277970    1.81454416842831  -11.94544357228659
H          18.99878574149534    1.04689580479272  -13.70230513780676
H          16.56937209861127    0.42727715841615  -13.94857348515110
H          15.02297158107317    0.70551359507321  -10.27150867684276
H          12.35917699097094    0.35259836847040   -9.25577270139921
H           9.51958476456462   -0.12492077323764   -8.93502856556585
H           8.61038478731355   -0.96377926644903  -13.07003283620816
H          11.29363230255249   -0.63896362345969  -14.09563296477537
H          14.12821849619156   -0.14880870932816  -14.42268424731053
H           7.03640339938038   -0.66783797405996   -9.42764962099580
H           6.34379517589857   -1.22045968759336  -12.35907301942923
H           5.20651263013357   -1.20939005649222  -10.92722087304689
