89
 SCF done       -178.734534129143          0.000919500238
C           4.76655254796956   -3.91531604259598    8.31793469748099
C           3.67873326332617   -3.95836887956725    9.14536693466239
F           3.59117530227112   -4.92884477899518   10.07378826309857
C           2.63798486865580   -3.02339879955677    9.06856741027735
C           2.71007696447214   -2.03009775516356    8.13167973338584
C           3.80877269189604   -1.93883436787408    7.25335932570463
C           4.85669698147022   -2.89987094000471    7.34661402397363
C           5.96704319492804   -2.83335037046433    6.47090459323287
C           6.02615095293925   -1.83706887423722    5.53536033161461
C           4.98193076480726   -0.87090184861676    5.45887508635827
C           3.89734547252898   -0.91338369572717    6.28528387133549
C           5.30731279235776    0.10854624666033    4.40641891291368
O           4.64571186310785    1.05459975864645    4.03818979238386
C           6.65747317050068   -0.27093598610095    3.91729183569332
C           7.01218312328785   -1.53880632742281    4.49375616924821
C           7.96546997324362   -2.42178031552212    4.04201261344562
C           8.72037927219550   -2.25297170045657    2.86506565845900
N           9.33406101266235   -2.19593048662891    1.89542195180136
C           8.23195187006450   -3.66606552130522    4.64669935622137
N           8.50935865449021   -4.68007125818953    5.10951243105402
C           7.34123215741576    0.63311914356247    3.13643636979429
C           8.70044916716318    0.70195332240159    2.84647071797449
C           9.23420815816058    1.65769475543449    2.00237556608232
C          10.59257710306254    1.82494724439862    1.65373681584211
C          10.82316812024961    2.85959368948954    0.79190899525300
C           9.65462460605641    3.55397411355033    0.42027025927806
S           8.25301691914242    2.85221047803440    1.18749144211446
C           9.53077056475996    4.65425232585548   -0.41789872169014
C          10.53185759158653    5.34697136983529   -1.12457881430187
C          10.05839086928494    6.40705807685078   -1.84504209123518
C           8.66069249629767    6.59812395273786   -1.75558944865413
S           7.96934388341630    5.37595298652005   -0.70918852942622
C           7.98007667626541    7.67915081197058   -2.28734957391017
C           6.61869866664672    7.97886493285000   -2.25622292511384
S           6.17089262269442    9.66371906087509   -2.33457723338149
C           4.49141168864138    9.34155813828203   -2.02835591026663
C           4.26868620930253    7.94638322074834   -1.96391844372992
C           5.45558667634409    7.17649525679073   -2.12688651484715
C           5.35870889652057    5.78428079853027   -2.26420676890042
C           4.13412086060646    5.18374149720470   -2.14161873607815
F           4.03181250334261    3.85633172509771   -2.28376222318744
C           2.97274655865514    5.94108376219291   -1.89172447286175
F           1.79661485333580    5.31450293923785   -1.76528477522425
C           3.02779663454360    7.30672515462542   -1.81807533169259
C           3.54841979635911   10.36125735959980   -1.87080203466210
C           3.80998936116211   11.69407038195880   -2.04032896768776
C           2.87016326460473   12.71753357815383   -1.83948084608863
S           1.29122894967699   12.36771004450964   -1.19301367405987
C           0.88620142337314   14.04858195199181   -1.25468777013627
N          -0.38386151224323   14.44512976116566   -0.81388739356742
O          -0.65055412416813   15.63241423338093   -0.85985784596489
O          -1.12822156613447   13.56586728662232   -0.41628948957485
C           1.89139283137928   14.83616403203131   -1.74837895628213
C           3.03941839011262   14.09979153463858   -2.09506420160541
C           4.22419015878436   14.65057234205658   -2.67008622616224
C           4.41069598450635   15.95049985885545   -2.99919750737091
C           5.59781567987144   16.44092784866687   -3.60478922352570
S           6.91227397432958   15.35914512584997   -3.96336425447217
C           7.81127406085600   16.66706154992200   -4.64302126682662
N           9.08746354546319   16.39861289461006   -5.15543006051611
O           9.70999515837588   17.32506950476369   -5.63994045075625
O           9.48035835793268   15.24649521539693   -5.07820599688757
C           7.14546289378319   17.86432719243669   -4.59897759447098
C           5.87517446696898   17.75621048562362   -4.00646534285652
C           4.96260874669215   18.86765891007143   -3.82629052143929
C           5.13865468143715   20.08901944888186   -4.32155993262833
H           5.54760230256902   -4.65448065873370    8.40423602032646
H           1.80463882597932   -3.10760284518971    9.74783911162847
H           1.92066463374429   -1.29797714658033    8.05186719195106
H           6.74645959463881   -3.57161410313401    6.57176519588166
H           3.11553440804042   -0.17344462852431    6.20161587819784
H           6.72211423302974    1.44770062570833    2.76760283957714
H           9.39429818481380    0.01305581557100    3.30430209015769
H          11.35466267847763    1.17393647139870    2.04320713281669
H          11.79451301046918    3.13557966263782    0.42306870218269
H          11.56595763144518    5.05699607893135   -1.08403946217379
H          10.67470441568867    7.05621814929250   -2.44130007775324
H           8.61516775254743    8.46071239839803   -2.68899882768491
H           6.21609349092879    5.17808293948338   -2.49875102036337
H           2.11874181660576    7.86608976620481   -1.67175846858974
H           2.54677508956040   10.06094188137959   -1.59463102756901
H           4.80516246067594   11.98008841707067   -2.35180547087564
H           1.77980640088877   15.90027033000315   -1.84486556543464
H           5.02986035637322   13.95957207799819   -2.87533993435651
H           3.62806959852121   16.67081181256027   -2.81804516823962
H           7.57887241032158   18.77160593967319   -4.97692434506379
H           4.07793359738506   18.66429843026984   -3.24053899783136
H           5.99040331011644   20.35821054449136   -4.92095899467915
H           4.41873005320237   20.86826068598680   -4.14324988978436
