93
 SCF done       -168.881867388559          0.000469241255
C          12.35717822369876   -2.89758349837144    8.63921022329025
C          12.16780820550067   -2.91192730664521    9.99309718754095
F          13.20781690283330   -3.18492672290632   10.80421369369178
C          10.92330027536329   -2.65067711325598   10.58055857862012
C           9.85697639570006   -2.36958878324524    9.77175470934913
C           9.99611998771331   -2.33897887567024    8.36954333748797
C          11.26992438721576   -2.61090005625783    7.79161250831271
C          11.43247145844096   -2.59409498064263    6.38587031238561
C          10.35822332713091   -2.30316369761105    5.59156134455212
C           9.09065721931679   -2.01504452647646    6.17500811301109
C           8.90208473198178   -2.03836134278766    7.52564747825388
C           8.12629959053421   -1.68986660648820    5.10324749358285
O           6.94706984966007   -1.43560850293528    5.21642841495102
C           8.92665504553578   -1.67318189858893    3.85475830171277
C          10.21640336526791   -2.24380226472826    4.13853553107917
C          11.04717242667757   -2.86903086044939    3.23801499764378
C          10.68802478870199   -3.09138694315362    1.89476542166066
N          10.40003085976499   -3.33550746442343    0.80955934936692
C          12.29706571851698   -3.42037500236181    3.56901721736903
N          13.34538741114779   -3.84557314595678    3.77141016312587
C           8.41211771168797   -1.04767719125226    2.74611515671563
C           9.06959748234641   -0.47629218000014    1.65295775753206
S          10.78673898810422   -0.20363554440061    1.60340094197000
C          10.72706070733605    0.60531905223487    0.07841071447330
C           9.39857270878719    0.68602370525562   -0.38413979948511
C           8.46342543875753    0.07975662981416    0.50437782069161
C           7.09850772336379    0.05812364350539    0.17600570381872
C           6.69250311881855    0.63343989978712   -0.99672501999033
F           5.39341916593620    0.62914753001346   -1.32767263337530
C           7.61786719978138    1.23537337514056   -1.87573347572644
F           7.17125323809332    1.78549559755780   -3.01602117009367
C           8.95285947191806    1.26503405746598   -1.58487836051007
C          11.90112340274291    1.06216869394872   -0.55762305991668
C          13.15362854231924    0.79401723891895   -0.10679530592639
C          14.34157539258487    1.21287914780212   -0.76849391318582
C          15.58645529140170    0.81288467760610   -0.43802504946082
C          15.87704429426392   -0.11200488998507    0.70232319978279
C          16.77517424220753    1.27911893778928   -1.24096526230213
N          17.77826957558605    1.89889832181970   -0.40833057933193
C          18.85631462706036    1.23903230861608    0.06286859425559
C          19.64592630597184    1.66238218745831    1.08751115912037
C          20.78902208992722    0.95789689177568    1.50087782335987
C          21.60902141178829    1.31713417994076    2.53815696520430
C          22.74896609702725    0.61716049988439    3.00116938324524
C          23.37274201679205    1.19671350468346    4.06248346044819
C          22.76526564851591    2.39619200477078    4.50154254507521
S          21.36727754886956    2.76243777491952    3.51745038875287
C          23.16637589280687    3.20684194432028    5.54417695669673
C          24.25748223805363    3.01439594872872    6.42009031382139
C          24.39843330424868    3.99398515001677    7.35254699638827
C          23.42974506642028    5.03047762803874    7.27262400647152
S          22.32252540198191    4.68951095681100    5.95422982386659
C          23.38420506066852    6.12166436395214    8.09760129242070
C          22.47056439011678    7.19815601736694    8.07183072996482
C          21.39833514783808    7.45615762227622    7.25464945930882
C          20.73756926830270    8.67041147101545    7.55589598042254
C          19.62649455760415    9.23895269286048    6.93134950016369
C          19.14023360116429   10.45368164418416    7.39144820443322
C          19.74552631905708   11.11792424725987    8.47331593859832
C          20.84196731894616   10.56863541906334    9.10044189634629
C          21.33200227064313    9.35436593892020    8.64254956197906
S          22.69185957650908    8.47933997818271    9.26605686055869
C          18.01737523314232   11.03928400961429    6.76415262137795
N          17.10629941472198   11.51486558617872    6.25529521242248
H          13.32950868283833   -3.10728486610426    8.22145475115810
H          10.83332960906941   -2.67633162359900   11.65493883484886
H           8.88784402303721   -2.16426175119125   10.20100755818657
H          12.40731210517355   -2.80059607937181    5.97263269999680
H           7.93113333304570   -1.82831175910610    7.94851946186899
H           7.34098359813117   -0.87790609860012    2.79070554742778
H           6.37024428157766   -0.40275530046740    0.82264228472100
H           9.63828364640894    1.72598494386059   -2.27657360913260
H          11.77264245094589    1.62655525644650   -1.47095395238926
H          13.25787568326617    0.19858548920055    0.78944961244691
H          14.21060388088033    1.86633950309547   -1.62199999628336
H          15.41218408643003    0.23770358629039    1.62251885104746
H          16.94712548331559   -0.19988451564169    0.87333568220281
H          15.48317680455066   -1.10622661057526    0.49212397187470
H          16.45563826211457    1.99601070636040   -2.00356234277341
H          17.23811860225475    0.42449105261535   -1.74504156983081
H          17.47646415591422    2.70970459383216    0.11420922646470
H          19.10864321161432    0.33173142283538   -0.47158304815589
H          19.39280740063032    2.56978261337153    1.61904801481079
H          21.04214916986491    0.04927126795539    0.96934043018712
H          23.06928620508501   -0.29717185824266    2.53302884095330
H          24.25036748803226    0.79931996532488    4.53939271474182
H          24.90549992365617    2.16011344801039    6.34025475534686
H          25.17023374399309    4.01473782446181    8.10150210605272
H          24.14860052775808    6.17139528943954    8.86230821573065
H          21.08417627210697    6.80567036099310    6.45998021061314
H          19.15485237094140    8.73691170267570    6.09992014583027
H          19.34114938507521   12.06209239922958    8.80503835381961
H          21.31448193728276   11.06937795596582    9.93104453103665
