100
 SCF done       -195.154350383313          0.000870305404
C           3.28078765385061   -4.30938225304990    8.05173758277603
C           2.22822815819456   -3.72427010984917    8.69943800388544
F           2.14772208735175   -3.80420420524430   10.03929649554878
C           1.21526754535780   -3.03565800871565    8.01797919927841
C           1.27959562006264   -2.94232682953017    6.65554165570901
C           2.34287407116478   -3.52642058228045    5.93678148832745
C           3.36111644109509   -4.22609137942304    6.64834024775929
C           4.43079730182452   -4.83266464023013    5.94863771892067
C           4.47775291638620   -4.73771571913054    4.58485492980374
C           3.47129982794768   -4.01569150975977    3.88012599098737
C           2.42378294794400   -3.42808974865315    4.52961010805936
C           3.78699188439633   -4.02002103933205    2.44057982137314
O           3.14421945176777   -3.55125797643220    1.53014436179578
C           5.12101720774010   -4.68288950543796    2.33558568031723
C           5.42106342661250   -5.28604651999094    3.61323628464994
C           6.24801239094421   -6.35547540137574    3.84351349073723
C           6.95237516343802   -7.02692192233487    2.82794129143078
N           7.53481791792819   -7.59052306631938    2.01434397722496
C           6.41402813221951   -6.96565374337333    5.10468794344406
N           6.58751256403441   -7.50016355585024    6.10471675089661
C           5.83379807511701   -4.54338657083571    1.18124532679419
C           7.21521742746493   -4.72147618334971    0.98306945991596
S           7.91122628034843   -4.82663852234310   -0.63114774853188
C           9.56540846906183   -4.98948278615712   -0.06688762517040
C           9.53356588071279   -4.92824778967711    1.31221151710374
C           8.26280118302188   -4.78674982781509    1.88079307598095
O           8.41112019764907   -4.71523495538019    3.22845657518058
C           9.74420017424573   -4.83318604486017    3.47151604145789
S          10.38669563594521   -4.80813437525709    4.94757118296920
O          10.44401566630779   -4.96294150211196    2.32526871910716
C          10.68767999585459   -5.17894558671948   -0.89910269830627
C          10.61924323694163   -5.21256561129208   -2.25773848747257
C          11.67204580396618   -5.42847348533678   -3.16950392813081
S          11.37790494419963   -5.02013989390075   -4.83419421385664
C          12.97949969590370   -5.42542072675818   -5.33341565419214
C          13.72404722428659   -5.90072155515098   -4.23770582815195
C          12.98344879134571   -5.91903444274785   -3.01437481028903
C          13.58523659369786   -6.45237516900344   -1.85857930623392
C          14.87901956844307   -6.88748046867013   -1.91755524319690
F          15.45740467241144   -7.40074727412908   -0.82320070358255
C          15.62351303229876   -6.81906229652096   -3.11527815789478
F          16.89458554269308   -7.24719471732816   -3.12150776738314
C          15.05860838419287   -6.34621216834177   -4.26399285243754
C          13.42427589782213   -5.28399327302596   -6.66803326126731
C          12.67173058858670   -4.83682510097230   -7.70296561656619
C          13.19126403021239   -4.72830191173306   -9.02642083109635
C          12.53617335120292   -4.31429307286392  -10.12833780174404
C          11.12197463655558   -3.85335966130982  -10.18582998798099
C          13.27856849439453   -4.25083395612545  -11.44225227141888
N          13.69489616729151   -2.89153329457009  -11.70543489564785
C          13.41261014843180   -2.19298263319758  -12.80435883550995
C          13.78832732992972   -0.89081040072400  -12.99222664019352
C          13.59465676018423   -0.12961733817180  -14.15213355912670
C          12.83053669823036   -0.32553149553737  -15.28044038324185
C          13.22423216940532    0.41944287574448  -16.50241310927741
O          14.03692056498473    1.31623091912702  -16.57595672836949
C          12.45741571087456   -0.19167598194952  -17.60653613103224
C          12.53165979793980    0.05016799443611  -18.94641608199930
C          11.71729646638660   -0.69794402076144  -19.82748992364198
C          10.84234427822346   -1.68840484775393  -19.29554385469121
C          10.04392245283894   -2.44011092340629  -20.17893222246931
C          10.12204606319777   -2.20132591318209  -21.52281877414311
C          10.97248714552350   -1.22912687863593  -22.06509391015934
C          11.75589534402869   -0.49148729882838  -21.22113700525052
F           9.35988491144840   -2.92054866368886  -22.36856075810858
C          10.77834977318387   -1.90729801734262  -17.89856810965983
C          11.57047793999448   -1.16488722610781  -17.06677069203350
C          11.70573395022760   -1.15437633727820  -15.60879580841556
C          10.76129031021094   -1.66819398458266  -14.74558851224271
C          10.77803089913633   -1.45711056316514  -13.36093235793162
N          10.77019523091094   -1.32336504970734  -12.21807516469201
C           9.64446748925763   -2.42450584296784  -15.14683813244239
N           8.73240438136576   -3.07686932357628  -15.39748676136469
H           4.04117502359092   -4.83466330499842    8.60818973363833
H           0.40896635028880   -2.59489717502724    8.58250812746047
H           0.51143113388134   -2.41632913128619    6.10891049317887
H           5.19334625254807   -5.34756229152704    6.51122204455332
H           1.66571704851481   -2.89360670539296    3.97692813786334
H           5.27342965133841   -4.17785780197190    0.32715767200018
H          11.62514490963518   -5.27268288146839   -0.37406348578218
H           9.65142806746447   -5.01663620696546   -2.70588204095655
H          13.04587038968026   -6.55887306140267   -0.93410876036216
H          15.63945197653990   -6.32935890965936   -5.17106545651736
H          14.45200915254874   -5.56434420902232   -6.85529628697977
H          11.64370198565846   -4.55976336428229   -7.51952132425654
H          14.22695321557003   -5.03065400478984   -9.13580863300291
H          10.69277263374769   -3.71214000460099   -9.20014103734611
H          10.51697808821369   -4.58480319146640  -10.72364150502040
H          11.05234399458448   -2.91472640561750  -10.73817049072052
H          12.63399125523060   -4.57890952363065  -12.26073214665238
H          14.16361427133997   -4.89876213927423  -11.41019205498978
H          14.11547457660206   -2.39968332298336  -10.92872666124588
H          12.94331721438764   -2.75368016283308  -13.60110288994278
H          14.35161991609624   -0.41779755616404  -12.19849162841244
H          14.22364913269435    0.75365221179498  -14.22857431792890
H          13.20450306819163    0.80117836718538  -19.33240358519609
H           9.37389880641609   -3.19429263656170  -19.79640012826248
H          10.99117102102695   -1.08414575086630  -23.13361081317103
H          12.41990679282290    0.26327908971537  -21.61508831414079
H          10.10922590244730   -2.66690903587973  -17.52623642334271
