102
 SCF done       -193.527938687300          0.000424593660
C           8.35345380819283   -5.36305811886691   -7.28809881594023
C           8.44579313682714   -5.71056564854794   -8.60711574336116
F           8.82058470510997   -6.96077465639727   -8.93797596650284
C           8.16197149873704   -4.81072104749548   -9.64280341048889
C           7.78170088223882   -3.53612303828575   -9.32537557672317
C           7.67117833113563   -3.12344964293322   -7.98195629367803
C           7.95771626417553   -4.05639197811007   -6.94315687879247
C           7.83261084903392   -3.67228021192991   -5.58729392267936
C           7.44106029084832   -2.39687919741129   -5.28707479382680
C           7.18186077953917   -1.45861286440961   -6.32865318418481
C           7.28404641187247   -1.80626445934376   -7.64423174944640
C           6.82160639611103   -0.15587819752072   -5.73204654710132
O           6.49070108642743    0.86090972972016   -6.30192539494379
C           6.99522781108532   -0.33907246912038   -4.27003026784092
C           7.17429125311479   -1.74691018347749   -4.00871881676181
C           6.86107164716958   -2.39327782097492   -2.83710769103832
C           6.99732030772800   -3.77900087703024   -2.63865474049526
N           7.11088639710857   -4.90086033874604   -2.42068746013847
C           6.27245429618634   -1.72154226955456   -1.74924456343308
N           5.72849601893466   -1.18742444886134   -0.88920713336637
C           7.03171291467421    0.74195058224733   -3.43351466696147
C           7.60685366708885    0.79237425862694   -2.14474458289146
S           8.91374452546465   -0.29890251547953   -1.74877502320543
C           9.11118792429597    0.40574554620431   -0.17626491667902
C           8.19397219269932    1.45130658052705    0.02409238311874
C           7.35206273090483    1.67261557332745   -1.08643270392169
O           6.38838960013261    2.62341736027052   -1.03885230321912
C           5.19570759843537    2.46296963985263   -1.78596087916556
O           8.24166619530176    2.09989755115818    1.20573703740755
C           7.21526659168358    3.00871680645892    1.55276171540766
C           9.99960687222303   -0.07346496361523    0.78799333453658
C          10.89780508117179   -1.10615945572570    0.64845099721739
C          11.70423414468118   -1.64716791791086    1.67756379948649
C          12.50375970226409   -2.67675588092750    1.27945512583870
C          12.39180691339036   -2.98352465257982   -0.09328058367205
S          11.20618528207270   -1.94799437547618   -0.85620972798255
C          13.12029192147743   -3.91671427068819   -0.81353288361510
C          14.06261704494174   -4.84269405919549   -0.31781807429467
C          14.67355639599729   -5.58979128581871   -1.28106000758079
C          14.25919434614097   -5.28428868381973   -2.59788756553618
S          13.00609741858711   -4.04848638700177   -2.55015574027599
C          14.64710345090445   -5.77484660225021   -3.82601216189429
C          15.67036050506506   -6.67173097805946   -4.17344164718435
S          15.63478563447005   -7.27576958882564   -5.80932468936461
C          17.03504864241876   -8.27262913640456   -5.55360849940357
C          17.49594393573685   -8.14724569652539   -4.23367394348943
C          16.77242842123059   -7.20169720418454   -3.48476721384359
O          17.17176536666566   -6.77469402934317   -2.24007282644833
C          17.76074348209035   -5.48060614323422   -2.25615303110785
O          18.55579320038966   -8.88743592471062   -3.87699223260019
C          19.07573665363419   -8.79276020782455   -2.56576515290471
C          17.61556332662578   -9.09197849473054   -6.53486361566427
C          17.56122994587376   -8.93914624745501   -7.89367614206394
C          17.80233555980351  -10.09075461768622   -8.79603693839249
O          18.23011928128024  -11.18171450796749   -8.48944467991272
C          17.36184034078195   -9.63355160421227  -10.13104427227505
C          17.28185814796882  -10.33643709804091  -11.29748277890779
C          16.81274240056689   -9.68828569903792  -12.46305900835428
C          16.42810918881971   -8.31799178256506  -12.39272205542375
C          15.95937626230601   -7.67939956430941  -13.55707277157137
C          15.88723049442892   -8.38380594490051  -14.72641621587059
C          16.26127610960791   -9.73088953893104  -14.81659845836236
C          16.71671706840659  -10.36670538893297  -13.69486858197831
F          15.44186419185727   -7.77341180732609  -15.84144759970855
C          16.52697923824332   -7.61223224561020  -11.17032576455518
C          16.99314051443919   -8.25895855168314  -10.05897276396723
C          17.24808455034386   -7.78643945269391   -8.70027915589187
C          17.44092691653803   -6.47189144783160   -8.34613727615470
C          18.00977170494403   -6.06558210642040   -7.12378713069713
N          18.52463577092267   -5.68898674157918   -6.16737391821311
C          17.19560791826983   -5.38433958468121   -9.20544068354813
N          16.99405823166389   -4.46006161964088   -9.85709842815021
H           8.57494105655104   -6.08356740525867   -6.51630468937599
H           8.24961469789392   -5.14198815575454  -10.66536982900738
H           7.55852998578266   -2.82477032844565  -10.10628225682480
H           8.05704348020047   -4.39397113079966   -4.81759212195905
H           7.07025098468462   -1.08713430789707   -8.42072630862255
H           6.67875338104935    1.67077412588260   -3.86561150785259
H           5.26064696354702    2.97728331872490   -2.74711054390764
H           4.40857552951972    2.92819906779971   -1.19089735748452
H           4.96227847041753    1.40807849806632   -1.94052990803484
H           7.47362576565735    3.35879332152210    2.55127869260511
H           6.24160500271174    2.51494497356186    1.57777682589715
H           7.17741201142416    3.85320431285789    0.86270750504496
H           9.94465462811856    0.41592118682633    1.75108055832686
H          11.65977239190584   -1.26301435285473    2.68110494362203
H          13.17662513837768   -3.20561964360166    1.92979581095882
H          14.25995855607201   -4.94372952058608    0.73417430367247
H          15.39977723112951   -6.35476401407486   -1.08017184279314
H          14.06016128751818   -5.43108837932886   -4.66917065893258
H          17.02997941896209   -4.71506617398754   -2.52910322642030
H          18.59510728658931   -5.44161597742426   -2.96208392783844
H          18.11854166578028   -5.30274952882939   -1.24389835356452
H          19.80880793569831   -9.59485904820985   -2.49219080040607
H          18.29633842401806   -8.93073713647359   -1.81392346593640
H          19.57124549141894   -7.83279011711106   -2.40387615879398
H          18.13198326882702   -9.97320200332818   -6.16793731839201
H          17.57577377283825  -11.37476622573474  -11.33388727071331
H          15.66618637257836   -6.64165648031348  -13.52511836465265
H          16.18229282863558  -10.23581348490215  -15.76629725337897
H          17.01105827572736  -11.40454984062509  -13.73937429523091
H          16.22338088706783   -6.57763765052268  -11.14210724109045
