104
 SCF done       -200.667643788312          0.000835958484
C           7.87417902720179   -5.34673830496639    8.24798008329496
C           7.62552480296158   -6.06094416711207    9.38711305358183
F           7.40437988299757   -5.40823572605894   10.54223692884628
C           7.59212472822651   -7.46190466551328    9.40356774901670
C           7.81657314675182   -8.14240481352695    8.23916556769153
C           8.07965165562748   -7.45652283622812    7.03575119808663
C           8.10657929096966   -6.03124685047824    7.03950250914252
C           8.35989282477052   -5.32052435108647    5.84258174503916
C           8.58495416577382   -6.01552908105925    4.68625392828924
C           8.57397949363041   -7.44067269908410    4.69138684788006
C           8.32196689156330   -8.15106446877620    5.82909518283011
C           8.88603808284608   -7.93445916987532    3.33632444686232
O           8.91860942215654   -9.07978385235398    2.94670177413428
C           9.22451254525208   -6.71818232765806    2.54885843115731
C           8.83357980322898   -5.56303693159312    3.31972287939775
C           8.48165088253890   -4.33534273043268    2.81671172873773
C           8.45300089647542   -4.05467195562001    1.43665454000539
N           8.38231782039646   -3.82057803494116    0.31455407422128
C           8.02523722077571   -3.26409964034685    3.60839286535004
N           7.67686156620994   -2.35453036267251    4.21622323445268
C           9.89131217677216   -6.86445553637004    1.36453655013868
C          10.70403175968748   -5.95680348585380    0.66695844589701
S          11.37045573634827   -4.52446330475772    1.37517138807560
C          12.29963956669351   -4.11749371066599   -0.02500815944013
C          12.11248830790659   -5.08452397508622   -1.03424800107898
C          11.21557720333080   -6.12361539462747   -0.63635511535456
C          10.89764411744359   -7.16835598633437   -1.52098706197917
C          11.47729286619368   -7.18868489565056   -2.75788624025368
F          11.19591334372613   -8.17707851851166   -3.61563854040350
C          12.38319521692202   -6.17940944575454   -3.14740078585194
F          12.94692004919542   -6.24054784657071   -4.36351046198651
C          12.70004994965194   -5.14640085835026   -2.31145302188163
C          13.06307084430757   -2.92749159620115    0.06797038229772
C          13.78890767888370   -2.29141980241392   -0.88405073939953
C          14.48940037078633   -1.08116770296109   -0.59878916079611
C          15.23895798754902   -0.35722485148118   -1.45225194123811
C          15.51729787872926   -0.69915103444969   -2.87803921262126
C          15.93274056103107    0.88942388037296   -0.95625269477987
N          17.31888044497525    0.59424075665817   -0.65922084539280
C          18.37998439723104    0.84140089266001   -1.45078616229591
C          18.41528768232283    1.59385134077241   -2.58314519405226
C          19.60508531674621    1.84740620897008   -3.30005503384906
S          21.12491748527568    1.15211383195303   -2.85999260767763
C          21.98912315923522    1.97046924188131   -4.13228371012123
C          21.10094836558854    2.75761807691866   -4.88904621780670
C          19.75368546604629    2.68319740043603   -4.42541611390644
C          18.74660043240043    3.41262692298265   -5.08184971824825
C          19.08096138874660    4.18270663680541   -6.15921857820453
F          18.12893898064127    4.88058750604832   -6.80105231332638
C          20.41436452907383    4.25840897656962   -6.61617863295096
F          20.69339768662331    5.02577584687610   -7.68004172224295
C          21.41467344219765    3.56218928519600   -5.99813690114592
C          23.37529992861318    1.86343915703066   -4.26390957731594
C          24.17013682133988    1.02103504294224   -3.53113314945700
C          25.56544221039520    0.92486654470744   -3.63538509109362
C          26.48286751913652    1.80715136137396   -4.15443684107162
C          27.81217097553217    1.28338827040536   -4.55562833696388
O          28.25652620245197    0.17893323090871   -4.32530055804722
C          28.44973367382591    2.36902084874841   -5.32648307032900
C          29.63408505071540    2.36536863515495   -6.00329277567103
C          30.03477254911176    3.52965159179265   -6.69763394058345
C          29.18842230046574    4.67565915260741   -6.68236511698090
C          29.58990116812499    5.83136270550055   -7.37971217979274
C          30.78129196851969    5.83060235900807   -8.05010611892647
C          31.62809667801492    4.71474671515131   -8.07625724121455
C          31.25182308571928    3.58343410598412   -7.40664326653549
F          31.16867514857532    6.93590440798495   -8.71468925600898
C          27.96706481475657    4.65065345967770   -5.96797130004085
C          27.60837100103514    3.51706554993565   -5.29168141702172
C          26.44777002022495    3.21549285626012   -4.45153372740927
C          25.64679682410990    4.17254902299677   -3.87201780269069
C          24.68686325461676    3.91234942150840   -2.87780452188054
N          23.90664855212113    3.76897929545772   -2.04654417146834
C          25.74087248630207    5.55043012804975   -4.14619565013751
N          25.75090219461001    6.68145503323357   -4.34791962371835
H           7.88794585401319   -4.26827665994574    8.27184088332020
H           7.39057217387024   -7.97149286462189   10.33238775831449
H           7.79600349096745   -9.22173192318759    8.22673779953097
H           8.38050356350852   -4.24245186732787    5.87276026965527
H           8.30816474072069   -9.23047921670546    5.81049195821434
H           9.86541236755639   -7.87311665405762    0.96312100973624
H          10.20721041321681   -7.94748478175481   -1.24352196181203
H          13.40243424963270   -4.40792289894810   -2.65315858917728
H          13.02504418023786   -2.46602836975817    1.04888820509450
H          13.83504339966559   -2.67068730365060   -1.88969334600035
H          14.38164111945237   -0.71585094324503    0.41592751844966
H          15.26863635259704   -1.72809723332416   -3.11493324918470
H          16.57076023602224   -0.53554372935561   -3.10315083656980
H          14.93696853684927   -0.04759843925334   -3.53292856268832
H          15.45704270576309    1.25478228549726   -0.04147002061108
H          15.89131599350934    1.67792438798669   -1.70712504718018
H          17.45683017116493   -0.05098702810015    0.10290238031688
H          19.30822288153283    0.41162016470861   -1.09644716504416
H          17.52118968517241    2.05754378656465   -2.96877367355714
H          17.72015624156703    3.37872942294076   -4.75616453548911
H          22.42279801524495    3.64007639315290   -6.37040309046146
H          23.83014301009212    2.47295285332330   -5.03326796936553
H          23.68272528472931    0.31964726074475   -2.86567951083587
H          26.00432517931878   -0.01601052911824   -3.31534310151355
H          30.26033037311260    1.48582167112540   -6.00876794497947
H          28.96438022084009    6.71037649618604   -7.37784246619755
H          32.55629444357789    4.77239141854428   -8.62239265527610
H          31.88759021594304    2.71076451080116   -7.41212458116385
H          27.34426194065004    5.53094502270701   -5.98143537918692
