105
 SCF done       -206.528217353083          0.000655961933
C          11.22334634349455   -4.74379998108740   11.30966231676987
C          10.97178826708345   -4.71146935543731   12.65314335270872
F          11.97390012962897   -4.94211834491327   13.51981569073647
C           9.69774039526231   -4.44451147237925   13.17290075199321
C           8.66618536636009   -4.20794577071361   12.30737357686271
C           8.86897778156677   -4.22876025130748   10.91216262578982
C          10.17230208084647   -4.50349588219137   10.40363341827752
C          10.39920429579073   -4.53757473271804    9.00798760544723
C           9.35718096011515   -4.30055849728438    8.15317342058126
C           8.05941382712581   -4.01084577939341    8.66683952179099
C           7.81130747355713   -3.97922161308732   10.00898386138336
C           7.13421033723026   -3.75531909894793    7.54588154635760
O           5.94951705418152   -3.52326755860719    7.59414980761497
C           7.99203185399938   -3.77516548948519    6.32545422682218
C           9.28600567573369   -4.30771892249957    6.69525053969874
C          10.17435151475032   -4.93589085754458    5.86209205194161
C           9.92324199902093   -5.17395677350984    4.49481395226270
N           9.73452556564643   -5.42720570944338    3.39118556441587
C          11.40277298868932   -5.47996357148809    6.28533717235736
N          12.42957159462588   -5.90910235921920    6.56769976747206
C           7.52989702560329   -3.22842403399984    5.16554783115453
C           8.32581469319799   -2.78305623010438    4.08131198081774
O           9.63661359120239   -2.56745974456448    4.29404391072640
C          10.20615926091110   -2.12304304619393    3.15774738195877
C           9.22558180413785   -2.03562339662814    2.14908120306227
C           8.01709151653503   -2.45010901122517    2.75275673333007
C           6.66327842007212   -2.56942645919005    2.13995340622670
F           5.74386527629838   -3.05490324033327    2.97770748393156
F           6.18098627572241   -1.37739673154325    1.72299146220003
F           6.63718153786697   -3.37319317587370    1.06243237551191
O           9.56065542677894   -1.60078551683193    0.93075576586501
C           8.61987248928869   -1.55102907628908   -0.12837031161346
C          11.59268282266597   -1.85648082555813    3.17164674436986
C          12.32391311345980   -1.50061093446693    2.08149128082007
C          13.71416310260539   -1.25261329847776    2.05414152463243
S          14.52908420090328   -1.39297717133988    0.53117127039634
C          16.09850783100128   -1.14662900921953    1.21554078927584
C          15.98786560735090   -0.86217648262363    2.58768665038322
C          14.63766510215652   -0.92575901936189    3.06430187591591
C          14.35791828013254   -0.58950005098781    4.40246475912460
C          15.38303054851561   -0.23932159781058    5.23347150151564
F          15.12418975592915    0.08890178818170    6.50886356574444
C          16.71224397534809   -0.17533969046939    4.76407553575312
F          17.68554018616299    0.21271049967127    5.60397942143004
C          17.01519142842007   -0.46290594692434    3.46490819988718
C          17.22357486905753   -1.28741813629459    0.36042565337172
C          18.50398330266581   -1.53312609205934    0.72361730147410
C          19.55550371943828   -1.66723798560996   -0.23529085443794
C          20.84633071413766   -1.91563871910516    0.04841307843014
C          21.38310653419775   -2.06729971078117    1.43909127630603
C          21.86874935768956   -1.97923232953673   -1.06082920137804
N          22.73198858061425   -0.81987418738881   -1.02519732997633
C          22.45080096516951    0.32752307052898   -1.64013394945232
C          23.18294585520062    1.47451586006975   -1.50661020886792
C          22.90358108063159    2.69824424455836   -2.12945246399835
C          22.05891224078368    3.03876343019624   -3.16182002810152
C          21.63834885809390    4.45762831584447   -3.25571104496163
O          22.08416457769322    5.39206369218717   -2.62370603827301
C          20.53535949709492    4.48379008951985   -4.23790319881632
C          19.73401574052408    5.52308670569576   -4.60837145114970
C          18.70720925870992    5.29847828946370   -5.55401842571240
C          18.53108138537398    3.99166598836758   -6.09281736780267
C          17.50075839819130    3.77084762256420   -7.02708725792924
C          16.69706996185534    4.81232483764724   -7.39865381088915
C          16.85562371790587    6.10500315597829   -6.88277283337577
C          17.85030995752637    6.33600471286766   -5.97320405621238
F          15.71053129096816    4.60197199364921   -8.29159749820082
C          19.38491553240299    2.93529947331186   -5.69512740887697
C          20.37709176318674    3.18034461849173   -4.78613199645880
C          21.40865435829958    2.31023077748402   -4.21609653347336
C          21.80027137356416    1.11599808635823   -4.78063052324423
C          22.93272957542661    0.39163348313624   -4.37630280085168
N          23.84226165475998   -0.24024568340242   -4.06790867468240
C          21.14466927945523    0.49629612397754   -5.86045079798075
N          20.63739937278594   -0.08026367590099   -6.71527364708169
H          12.21629248618105   -4.95534385394581   10.94481065110180
H           9.55942419035576   -4.43138126053363   14.24232647453682
H           7.67614025862604   -4.00003787593158   12.68420853844477
H          11.39599402555834   -4.74045724193947    8.64924232292180
H           6.81946942941691   -3.76585624727244   10.37822655714424
H           6.46546351386773   -3.04125873035973    5.12339907944713
H           9.17088212062743   -1.13701295690091   -0.97127414771522
H           7.78031103237268   -0.89481129852216    0.10578145804022
H           8.25966417500368   -2.54754780256064   -0.38887530460382
H          12.06356641846413   -2.02230503362075    4.12854188668786
H          11.82137893119067   -1.46575810152571    1.12569311111319
H          13.34929455919475   -0.56081320879461    4.77590615313495
H          18.02750111651871   -0.33612240688443    3.12292270496546
H          16.99347813207972   -1.24557400081885   -0.69773922928572
H          18.75868327616571   -1.66656703251026    1.76169427259381
H          19.26203771592734   -1.55912409774616   -1.27192338725526
H          20.76191504508924   -2.73979787847324    2.02584362766886
H          21.40635464319519   -1.10465570249236    1.95014499754750
H          22.39334501973824   -2.46769499666932    1.42260741406211
H          21.37424070569504   -2.01505209082857   -2.03436862828871
H          22.48841125365880   -2.87388122974002   -0.95471130530273
H          23.55537715175718   -0.85656350136087   -0.44290048592285
H          21.54136526505441    0.32313661885681   -2.22512809277749
H          24.01537688878589    1.46311110932971   -0.81577884712230
H          23.37454534266066    3.56550285286178   -1.67409198113921
H          19.87953988182121    6.50605273981416   -4.18607068953281
H          17.35266519372415    2.78901091997127   -7.44913247527454
H          16.19183376481707    6.88799504901834   -7.21353033701701
H          17.99244660555699    7.32388553489723   -5.56130915438186
H          19.22321030676581    1.95635709604274   -6.11771620439427
