120
 SCF done       -220.615323481983          0.000823157513
C          21.40436383137361   -4.58460742689421   -2.52847764101220
C          22.09766114341122   -5.73749147922181   -2.28514934482860
F          23.08186211704614   -5.73677840352247   -1.36599023547085
C          21.82431735905540   -6.93504388378242   -2.95869495036876
C          20.82718270180570   -6.95413325932346   -3.89430686752134
C          20.07963022800980   -5.79480031850665   -4.18395979143498
C          20.37530960493907   -4.58600674818902   -3.48968640460553
C          19.64444974783354   -3.40691956431382   -3.76966639838601
C          18.64782752464676   -3.44379047146571   -4.70501032362855
C          18.34475992979287   -4.65896336184571   -5.38432863446519
C          19.04098254354117   -5.80688001261234   -5.14323776046410
C          17.20579637015011   -4.43246298186802   -6.29848617352187
O          16.70119369522004   -5.22140984366755   -7.06732180015047
C          16.76252429342647   -3.04333997385391   -6.02786031338090
C          17.76368267931503   -2.40006429757384   -5.21939615569292
C          18.01845634599049   -1.05013397528645   -5.16187965887137
C          17.33770657933654   -0.11243721150894   -5.96208916712169
N          16.83630072668131    0.67171710044997   -6.63541008021179
C          19.03065953871841   -0.47150651969411   -4.37601723982274
N          19.81552998950950    0.05859095937643   -3.72550207871782
C          15.51488681253670   -2.65150134822850   -6.44605956118446
C          14.67648229184694   -1.64944016126075   -5.95085518433862
S          14.95133450130720   -0.82976265450299   -4.44033579529457
C          13.46799910448188    0.05116235103946   -4.52043094959160
C          12.75872783110291   -0.28495222484927   -5.69318408488635
C          13.43653602411670   -1.24700109833386   -6.49558227961203
C          12.86742215747117   -1.67523084698505   -7.70562074227839
C          11.65861675517768   -1.15955674632497   -8.08532641618216
F          11.09408285957261   -1.55855420070847   -9.23365214926169
C          10.98682623452076   -0.20723914700089   -7.29030253322233
F           9.80379108339713    0.27225417327556   -7.70588356325567
C          11.52098754962077    0.23164444028013   -6.11095648107947
C          13.09043086718197    0.96156444318018   -3.51382781208119
C          13.90439946499947    1.31426766011638   -2.48307990723168
C          13.61507758628209    2.21676767692771   -1.41471629845637
C          14.63895255671303    2.55127382711999   -0.54488687415919
C          14.41235872096579    3.42509436582089    0.52949543639385
C          15.25632983347872    3.90712192210246    1.52628891845512
C          16.71004356169534    3.64865812843517    1.72484888984616
C          16.97887360376016    2.16018566382503    2.03024314924601
N          18.21142499034127    2.04690180962423    2.78160672218684
C          17.53302435707826    4.14069778935186    0.51880034137913
N          18.95551842339504    4.08039410031633    0.81402897197717
C          14.44549078257908    4.72861322386452    2.39105989052398
C          14.74589101393726    5.37904479293275    3.53127998478501
C          13.71926244721372    6.15973109941317    4.27697354890847
C          12.34970868016583    6.13151115744366    3.67392164639304
C          12.06576595417000    5.47192847248320    2.53568592952108
C          13.07474587818952    4.74599089530597    1.85849861173243
C          13.06763161380149    3.95583704785162    0.72920691267547
C          12.03794848557163    3.60456352760438   -0.17649431188629
C          12.30592485028059    2.77171469954963   -1.21093290331976
C          14.17504715452607    7.59000016073835    4.36620505441863
C          14.48434871765894    8.21951834621862    5.51560370173934
C          14.89313811563283    9.58207265731192    5.67992843631695
C          15.13823284596544    9.93694740191148    6.96257511173597
C          14.94662364866605    8.88898387074459    7.90417219277187
S          14.43631909188204    7.42789747702815    7.09881617106913
C          15.12391273633372    8.93829056273263    9.27017725600539
C          15.53351008374124   10.03946539172482   10.05834774137686
C          15.61669114986671    9.75839003969945   11.38776395489405
C          15.28026891071883    8.42355761404182   11.72189426001673
S          14.84749593303323    7.53321619448767   10.28054903329826
C          15.28396887620566    7.86749095153344   12.98429729797368
C          14.94498816517533    6.53823241058082   13.22615963927370
C          14.94152662196247    5.93381715733837   14.46566297638251
C          14.60161978965533    4.56294497921504   14.75413296310710
C          14.19545824107739    3.59905722512376   13.86040730049957
C          13.87453471345695    2.27457451529147   14.21816935007031
N          13.59775765363716    1.18214127434686   14.44165540975960
C          14.03432886752443    3.77716344814201   12.47198243897624
N          13.87521040215075    3.83207184272503   11.33482161295824
C          14.75895085577271    4.35991359109614   16.19324340290327
C          15.17627864993580    5.57885044967224   16.78069798564305
C          15.30332451664290    6.60850984655049   15.72785494651251
O          15.63954130362815    7.76536245355509   15.89248222508039
C          15.41160814297181    5.71155577575257   18.12665268921678
C          15.22784639388789    4.58470583739481   18.93573344670738
C          14.81226682890896    3.37116256378325   18.34061244747229
C          14.57296110715420    3.23787875790306   16.97776316214853
S          14.64830904961364    2.10440157351372   19.51946135163101
C          15.13400021208541    3.20885685985710   20.77821778160518
C          15.40510138662968    4.46127381351032   20.34129999216248
Br         15.23764247437070    2.60376311459374   22.55109521616104
H          21.64476149302531   -3.67942034419695   -1.99297189437042
H          22.40447277242061   -7.81364325608112   -2.72517770986403
H          20.59760000889295   -7.86520152812633   -4.42620749516847
H          19.88470195210205   -2.50546732744608   -3.22803366651100
H          18.80351077884738   -6.71556249378342   -5.67579448028589
H          15.07778429245976   -3.29812145068714   -7.20055555596237
H          13.36202642798446   -2.39333900934377   -8.33852645257091
H          10.98919617748238    0.96497367728775   -5.52766377547010
H          12.10752286159783    1.39750940929120   -3.61120210131534
H          14.89794900211258    0.87990507239797   -2.46779951411004
H          15.61955750591912    2.12732426733136   -0.69916104249394
H          17.05043346659573    4.20334464373698    2.60463639958631
H          16.98192841527266    1.59250537755157    1.08617473146656
H          16.16487724027330    1.77107003237228    2.65190514232108
H          18.97008191010866    2.42611993747198    2.22088709655294
H          18.41488373562760    1.07633895863043    2.99188949979246
H          17.18735386170399    5.15594431243279    0.25563536314583
H          17.34953891129289    3.49749091469883   -0.34407631358854
H          19.19583272034457    4.75705169284237    1.53149641575165
H          19.49864870481661    4.29646554295347   -0.01450984394629
H          15.74056254623371    5.37243421080273    3.95485516080103
H          13.66865655563756    5.76259223174634    5.30213257251074
H          11.59360422067340    6.68896295435179    4.20481269232604
H          11.06267368291796    5.47390545203766    2.13471735002320
H          11.04478032493591    4.00236919455408   -0.02863160707051
H          11.51776843123854    2.49726089306803   -1.89384851667105
H          14.23033528421099    8.12971368910244    3.43202675472967
H          14.98341416125817   10.23814431269391    4.83269362176471
H          15.45131730314649   10.91825632247671    7.27100661733030
H          15.75328811079208   10.99966945348035    9.62729456524971
H          15.91016741110293   10.46383165871885   12.14460024797447
H          15.56585605439657    8.49617795047030   13.81648124600307
H          14.66814761626906    5.94395149265377   12.36385525734740
H          15.72852757788524    6.65469251586753   18.54361678819436
H          14.25811513886973    2.29010426240511   16.57462065189892
H          15.71746687452062    5.26601365172539   20.98159515749751
