100
 SCF done       -191.345225094903          0.000683897328
C           3.43702375440303    4.93810369967015   -6.81618162625740
C           2.44115360763354    5.87366773226699   -6.86472165170325
F           2.42752054294404    6.77359856482627   -7.86445293670952
C           1.42191486761050    5.93739073666561   -5.90493952827218
C           1.42149656632323    5.03198981985352   -4.88038813243586
C           2.42516535013810    4.04693902261518   -4.78062190260778
C           3.45202534528736    3.99683349827873   -5.76848264176641
C           4.46470575132626    3.01217871280922   -5.69426666502820
C           4.45427833894446    2.11364027580996   -4.66129165359586
C           3.43203646960896    2.17765233914227   -3.66963608823025
C           2.43718330233049    3.11075620914240   -3.72236487420731
C           3.66488208540822    1.12886606627418   -2.65905952113554
O           2.98419022208533    0.85334307919562   -1.69996188828317
C           4.97377035687837    0.51235755156413   -3.03508101725932
C           5.32762380689323    0.98767702113629   -4.35320545597804
C           6.18507972841229    0.37483018346920   -5.22928730512787
C           6.76821630483188   -0.88576373405982   -4.99111411289832
N           7.24416452862780   -1.92096747089093   -4.85121774724962
C           6.57872283625137    0.92629717225844   -6.46201631230925
N           6.99976461817729    1.36109647389331   -7.43844642658569
C           5.64135558326400   -0.21722367783553   -2.10704123703815
C           7.01943132585343   -0.60324860344854   -2.04926304504395
C           7.41497811903661   -1.65697943919008   -1.22981983998017
F           6.48238206079590   -2.33893418728241   -0.54854954093494
C           8.74475970742326   -2.07926737803294   -1.08934323282826
F           8.97052268419641   -3.15232049788487   -0.30503852668645
C           9.80604224428569   -1.47438182173489   -1.73779491245722
C           9.43958468447681   -0.40627592597049   -2.57925519838882
C           8.09070596729706    0.03864984083433   -2.71664248745568
N           8.10995704531103    1.09828383466237   -3.53697153090694
N           9.36742022009523    1.23828027260930   -3.86285264856658
N          10.20534071876144    0.39542348911091   -3.33556984746057
C           9.78910791411505    2.25304255839215   -4.77805946520178
C          11.19027985391718   -1.89813125912060   -1.60339083600689
C          11.82134743139220   -2.11859178766865   -0.44916187140751
C          11.23764004007710   -1.86438864987439    0.90380491919829
C          13.25134816188183   -2.61296968684386   -0.41816609092525
N          13.65654834853803   -3.36837068247868   -1.57627985381214
C          13.19638093874372   -4.60587338127615   -1.85227491779534
C          12.17060592829016   -5.23067760020777   -1.20875192784359
C          11.82264128345060   -6.56543330327103   -1.47699037818910
C          10.75269716962116   -7.22912025367958   -0.92886959361131
C           9.69644579398136   -6.73439957179179   -0.12777426864148
C           8.78535987604217   -7.68049863962033    0.23496265746272
C           9.08409542215141   -8.97983472595425   -0.23429133382030
S          10.53538530524687   -8.95896405312172   -1.19210183642440
C           8.38032741746153  -10.15053467677096    0.00980803184950
C           7.17511379188381  -10.30309904901287    0.72418906122864
C           6.75339359229806  -11.59877496721043    0.79348212883462
C           7.62059036276021  -12.52944854638987    0.17229296562000
S           8.97312414693903  -11.70418075141575   -0.52490523173672
C           7.33576505807442  -13.88633200601377    0.04990162048087
C           8.07421178317183  -14.92217616654668   -0.49932553120208
C           9.44600581215635  -15.03117204587186   -0.71294650198600
C          10.08104114827033  -16.05361169682789   -1.50141710110034
C           9.46844564140908  -16.92942684161416   -2.36906793230184
C          10.15203020324205  -17.90647640672971   -3.11657094301862
N          10.65268650474700  -18.72640372596653   -3.74746338577381
C           8.08998288341863  -16.95775350362469   -2.65654630935147
N           6.98611559603705  -17.03834013598630   -2.96721805541241
C          11.52530634671506  -15.95499577161180   -1.28901547097853
C          11.77033908361367  -14.87734773599844   -0.40573538991483
C          10.47794960227172  -14.27896401853431   -0.00672853203024
O          10.32896856007410  -13.38134687169982    0.80988349014813
C          13.03216321175408  -14.51730908542805   -0.00751585687076
C          14.10983172444064  -15.25850214269219   -0.50813921363210
C          13.85543532595326  -16.33450382744401   -1.38631859532733
C          12.57476952813309  -16.69891690831315   -1.78953863815067
S          15.32770185973245  -17.12038922077481   -1.87810958622976
C          16.24985325999051  -16.00228990328568   -0.90986939374196
C          15.49879972018451  -15.08914188532770   -0.25170514702370
Br         18.12111427704688  -16.14471768778178   -0.85753877390928
H           4.20336398055721    4.91736363407549   -7.57524595087810
H           0.66198656521120    6.69717999701751   -5.99536411902815
H           0.64691271350374    5.06063607845191   -4.12893494903674
H           5.23120053879775    2.99802477634889   -6.45307387574234
H           1.66771381915752    3.13543504932383   -2.96535866756337
H           5.04810104085936   -0.50389073699927   -1.24310992015516
H           9.51718756739708    3.23571270297330   -4.39205086923546
H           9.29672494250504    2.10813687326648   -5.74133393254219
H          10.86736593621862    2.17614369351646   -4.89274923232588
H          11.72047796461575   -2.00165058544722   -2.54015855160657
H          10.38548576047545   -1.19258252337806    0.84889908411790
H          11.99050322355620   -1.42389624643463    1.55557900889191
H          10.90605909906148   -2.79651109150367    1.36134816182131
H          13.37292584086089   -3.24132337423385    0.47368991835228
H          13.92394015900495   -1.75643939212405   -0.31457244812783
H          14.36121663060462   -2.97511149124586   -2.17580861256617
H          13.71079748831193   -5.11462635375449   -2.65660994719795
H          11.60106684581253   -4.69708022338315   -0.46613424043951
H          12.46337764547632   -7.12416033096545   -2.14644870939880
H           9.61558858754317   -5.69498483361211    0.13376940174968
H           7.91514506632791   -7.48077579201369    0.83337272356622
H           6.65096424026842   -9.47041134114375    1.15730163426879
H           5.85222904780811  -11.91752851636832    1.28716579417661
H           6.33409703580462  -14.15062743191791    0.37089360139171
H           7.49157377802411  -15.79993977061437   -0.75472545360714
H          13.18690013630606  -13.69006180640554    0.66731999029991
H          12.43378207983466  -17.53099071020917   -2.45884559728552
H          15.90393361142413  -14.32797649745666    0.38999838429154
