101
 SCF done       -175.921536653085          0.000413914399
C          16.23799652371439   -9.10045895636781    2.06619135571359
C          16.47186251498166  -10.10510972706873    2.96325611180176
F          17.73674032727898  -10.51580951538529    3.18338940602734
C          15.44118920487731  -10.73318795024195    3.67358297584571
C          14.15209008351792  -10.32696353834493    3.46407737755331
C          13.85391001524921   -9.29464123302108    2.55234355698321
C          14.91668764553858   -8.67088480541441    1.83737304656293
C          14.64137078633782   -7.63851240720148    0.90916187699358
C          13.34783868727542   -7.24084191832476    0.71459102531084
C          12.29035452331440   -7.85600877991217    1.44455211242312
C          12.52508180193570   -8.86162867826982    2.33515008738026
C          11.01060373632661   -7.21221017103472    1.07716676302724
O           9.89853004871619   -7.49788020514220    1.46777307055345
C          11.38168124594701   -6.09753788993969    0.17682348502542
C          12.76431435801412   -6.24679725445331   -0.18393563532657
C          13.36601753625202   -5.76567710039958   -1.32532816972526
C          12.65283529056215   -5.10424268673773   -2.34270046575567
N          12.08758890448975   -4.61257878802135   -3.21408108567206
C          14.72179161060344   -5.95630444100114   -1.64089163704972
N          15.83176469553147   -6.04586380100571   -1.92573277898265
C          10.46340641313460   -5.10455884257202   -0.07529618662349
C          10.67098232797637   -3.77605163901330   -0.44860529639898
S          12.22493088399406   -2.99374624272791   -0.37461622421371
C          11.59385901077647   -1.45161291319312   -0.83958246000007
C          10.19961436790744   -1.53033044935854   -1.03676278163847
C           9.67836788506980   -2.83630675867304   -0.80870588484629
C           8.30748696574842   -3.08308659137716   -0.97869286460934
C           7.49178455939916   -2.04997681743872   -1.35291060260432
F           6.17664512204287   -2.26211265262232   -1.51403250440901
C           8.00654895354089   -0.75666287676242   -1.57593113999392
F           7.16763526720896    0.22691918476632   -1.94303961535635
C           9.33904739580136   -0.49002776589479   -1.42502205315716
C          12.42943806899196   -0.32873355631632   -0.99619903675947
C          13.78211198717483   -0.36224938710514   -0.85991349955514
C          14.61689767421350    0.76918958553654   -1.06385311524184
C          15.96667695690683    0.78242965985526   -1.05369727510640
C          16.83901369309428   -0.39415934819463   -0.76696491396000
C          16.71035475435760    2.06876862403938   -1.31305481823396
N          17.32810964996173    2.55247865820814   -0.09629183031151
C          18.57223244636029    2.19252840778059    0.28321770495459
C          19.05935310772935    2.31683491848176    1.55018975817073
C          20.38090382331443    2.00318801874697    1.89962504349248
C          20.91111270942036    2.14187414576521    3.15946451423449
C          22.22218789853453    1.82166414754534    3.57723096930805
C          22.47151567102089    2.07773501731062    4.89394460745454
C          21.37215090716530    2.61932700680984    5.59030372811528
S          19.99848594261524    2.78371300332914    4.52080835587433
C          21.30977673262002    3.00382293916312    6.91965430485625
C          22.32528163144542    2.92790498815058    7.89444175246155
C          21.95171735269392    3.40369703437263    9.11625239198452
C          20.62170081950302    3.88538506792742    9.18085101530756
S          19.86014470770013    3.69721883379397    7.60945071943089
C          20.02174313421002    4.42179855583066   10.29345228754631
C          18.71352596130748    4.92619761102560   10.42981148971965
C          17.67836886358785    5.01394805816395    9.49457221307386
C          16.55134472348471    5.60038872368750   10.12077107518570
C          15.29444101997397    5.90144307077226    9.64523475343829
C          14.38082391470290    6.48829863102672   10.53584083093512
C          13.06717978503256    6.89928766644555   10.37516695489833
C          12.58544058051586    7.43532501017333   11.61223399601323
C          13.60680327366923    7.35632518979666   12.54016267387045
C          14.75127655330276    6.76991048104169   11.91334621703183
C          15.99814239290478    6.47434582661468   12.39112580116944
C          16.91973922765985    5.88219682622457   11.49852220598032
C          18.22396905542049    5.47060295036337   11.67008380590775
C          11.24804683831438    7.95085532756289   11.78593632784658
C          10.75267912473431    8.45064238956917   12.91500825755684
H          17.05664152179763   -8.64199519934064    1.53360428090631
H          15.68541167484043  -11.52116719183946    4.36824678462774
H          13.34031469054303  -10.79568763306884    3.99993156439449
H          15.46369802944690   -7.18113400470318    0.38168119069416
H          11.70887662333787   -9.32343089518221    2.87033958610580
H           9.43894986885726   -5.37489182699318    0.15983800983701
H           7.88814991160245   -4.06360091633681   -0.82507589492152
H           9.70559523117339    0.50640270561905   -1.60828074722773
H          11.94661531815107    0.60181799637789   -1.26175559811295
H          14.24305557519066   -1.30811246163033   -0.61358876931156
H          14.10027409073992    1.69543992847994   -1.28822986705608
H          16.28971842439857   -1.21766238695639   -0.32403436615969
H          17.64391239739549   -0.11066313126432   -0.08692148044814
H          17.29869809559358   -0.74812628290844   -1.69081293717066
H          16.03065791048918    2.83994593328439   -1.68538743136412
H          17.50063448449734    1.91083530517495   -2.05197708295486
H          16.68662014188094    2.79415102378657    0.64728326848845
H          19.21727571594725    1.84773177642564   -0.51437858715270
H          18.40675790376836    2.67839472289661    2.33414324644504
H          21.03633794733414    1.61949424313297    1.12850314885906
H          22.94269265604165    1.41117036226482    2.89168605196538
H          23.41483647430049    1.89535257931036    5.37657303040601
H          23.29844019158810    2.52761583289229    7.67341185504985
H          22.59407862733900    3.42637075805989    9.97926979494928
H          20.64088746166995    4.46387408665112   11.18188540567750
H          17.70982239275692    4.69577260478437    8.47060705096032
H          15.01306283435301    5.69522256033414    8.62229277007553
H          12.48720095203521    6.83193046177434    9.47149523649371
H          13.57046471837799    7.67470196557674   13.56500818415578
H          16.28237037630748    6.67927234358097   13.41406827019419
H          18.80199914695651    5.53650227710562   12.57506266183721
H          10.62341867995062    7.90990521035396   10.90172043668684
H          11.33623563057967    8.51055407012410   13.81760031143159
H           9.74297462392439    8.81817331153343   12.97422649032455
