99
 SCF done       -187.539123551015          0.000401388202
C           7.53214593046514    8.30960860908966   -6.21832385038013
C           6.51414137844062    9.18856117382411   -6.46451358038957
F           6.32585766960986    9.65072579300287   -7.71311570147951
C           5.64587260652474    9.63416311562420   -5.45831867067620
C           5.81959548515714    9.17382417250451   -4.18291565779232
C           6.85260421808074    8.26537507129241   -3.87270812961459
C           7.72792502970279    7.82766103564660   -4.90968438435925
C           8.77996333420358    6.92715124710198   -4.62067517088254
C           8.94462532425043    6.47985500872633   -3.33847681059696
C           8.05174607994146    6.90048386453566   -2.31022746201699
C           7.03416530214835    7.77615460861461   -2.55989977673056
C           8.41092209813398    6.23086213724472   -1.04652452465352
O           7.90572030527635    6.36836190039859    0.04375135465558
C           9.49272923053798    5.27136049226447   -1.41001732577009
C           9.94125972443601    5.58913193816803   -2.75040326041526
C          11.18469675013171    5.34524317662560   -3.26913692693737
C          12.20686844051497    4.68177666825543   -2.56138802102770
N          13.07058864825731    4.17762152479193   -1.99855091228921
C          11.60908330774368    5.81575600919440   -4.52936527932743
N          11.99480269678014    6.19374044450799   -5.54139529962322
C           9.82380520627226    4.26674309357851   -0.55318595923177
C          10.47584104311747    3.04984912973680   -0.85987517577157
O          11.10324503375403    2.37863861062305    0.13600313214042
C          11.66008322093529    1.27129675238726   -0.39055564969091
C          11.36277864731897    1.19653242539271   -1.74521779264775
C          10.59623712320544    2.32559504556235   -2.05157292325738
C           9.98735180225367    2.60294135510458   -3.37436655701912
O          10.63856550714118    2.63046799670773   -4.38807980053036
C           8.48552965999777    2.75161163545813   -3.36051250491365
C          12.43155389120018    0.38454602404723    0.39904130108296
S          13.18173348364267   -0.97840148169554   -0.34068282213793
C          13.90901572837626   -1.52002103687452    1.13809040918682
C          13.56028870208266   -0.65849500364550    2.19364690267965
C          12.72785182253055    0.42813812917347    1.76895812219293
C          12.28745548362095    1.39704827060337    2.69092582740977
C          12.65713176467261    1.27833787418377    3.99852278933904
F          12.25002437668383    2.18430268429045    4.89847793904248
C          13.46338306571074    0.20073537896343    4.42855460215741
F          13.79335988729661    0.11103576179123    5.72713136878097
C          13.90897743177182   -0.74917979865766    3.55586118008340
C          14.71430818726981   -2.68475514363388    1.03901704092267
C          15.46893055854336   -3.29814041440065    1.98050356669790
C          16.23958855870241   -4.46252726584603    1.67426533940954
C          17.01137839394125   -5.14647895858481    2.53727629251281
C          17.15608541793922   -4.81409216170943    3.99002111018151
C          17.80052280079985   -6.33983254553110    2.06530748714872
N          17.31415976585202   -7.54581293941790    2.69302982077273
C          18.08063464204713   -8.54293053491651    3.14086044809808
C          17.59384676331592   -9.73696568906436    3.58644742554663
C          18.43712054011439  -10.77799477350761    3.99312359277847
C          18.10184961019217  -12.06809869366208    4.31731826987358
C          19.07397004162980  -12.89337260363501    5.06726427349454
O          20.24019804687067  -12.63271625413320    5.27840002517298
C          18.31246536959239  -14.06626390557424    5.54306108972816
C          18.71686238799096  -15.08280805866572    6.35745389733957
C          17.79064394370299  -16.08776570718615    6.71840597842255
C          16.45490343920814  -16.01069548939002    6.22940910361274
C          15.53213249818651  -17.00722156221317    6.60220575873148
C          15.93768976362890  -18.02570062357040    7.41867058903864
C          17.24733667910223  -18.12150013338295    7.90687432232617
C          18.15521145117942  -17.16098558643229    7.55624502287085
F          15.05640063958927  -18.97980804526694    7.77616397911958
C          16.06729982748853  -14.94908607986543    5.37793497883304
C          16.98493837990999  -13.99498374926156    5.03267097418230
C          16.88551048968869  -12.82291681800848    4.16036489515722
C          15.89134175486462  -12.63532746727219    3.22879307090137
C          15.91292509303204  -11.67670579655554    2.19886418115603
N          15.87887126401922  -10.94195726729062    1.31528225483226
C          14.74889353147579  -13.45319931945381    3.12209696161752
N          13.78375494008521  -14.06300575049208    2.99397957213491
H           8.18470361284102    7.99160840664974   -7.01629297421740
H           4.86120424090373   10.32909518897537   -5.71204137893011
H           5.16331779410346    9.50244466873689   -3.39120714013320
H           9.42442166897037    6.60341143818722   -5.42265252243272
H           6.37415486629634    8.09112444457824   -1.76561688859573
H           9.49433896747298    4.38328361491851    0.47394087166795
H          11.65473664041572    0.42018057484234   -2.42232685660898
H           8.12335931902940    3.19472828729854   -2.43808602182954
H           8.06270420359970    1.75011273526289   -3.44694199860688
H           8.15815031698850    3.33007209007640   -4.22119552507292
H          11.67146481926414    2.22081163917612    2.37356626105956
H          14.51190280037435   -1.55402552984383    3.93560927550114
H          14.72217051519683   -3.11680655761369    0.04442473321738
H          15.53143762250462   -2.91695580814211    2.98466774602428
H          16.19333956406667   -4.79694759289907    0.64538506087693
H          16.19631063783029   -4.57291227436811    4.44094823705427
H          17.81278199987302   -3.95289379622380    4.11788280711267
H          17.58876360947341   -5.65222972580166    4.53068961829179
H          18.85451841933869   -6.21768523299588    2.33327267214396
H          17.72953482479167   -6.43025464907737    0.97394669344336
H          16.32185217713216   -7.72037260274984    2.61192829641314
H          19.14854152149119   -8.36531850803093    3.12018043667698
H          16.52500630389708   -9.88342946525882    3.59924607538643
H          19.48742292515693  -10.54038882647560    4.13026418281916
H          19.73164094612047  -15.12086504435594    6.72444966516448
H          14.51610711278911  -16.96730678472563    6.24155231974951
H          17.51017536022000  -18.94853376781259    8.54724238137320
H          19.17043026782977  -17.21272237362215    7.92022666967602
H          15.04760571531949  -14.91573604728578    5.02876098136010
