98
 SCF done       -195.221099410427          0.000650760662
C          11.33583002286932   -7.91409820583216   -2.16785303712231
C          11.22736699584397   -9.21528863870469   -1.76206494356033
F          12.16748701410573  -10.10365104761358   -2.13128105849463
C          10.16649362504044   -9.66842492573191   -0.96632344325984
C           9.20240047511823   -8.77894718643200   -0.58063432416434
C           9.26496540489633   -7.42530219475537   -0.96989662068020
C          10.35175788420248   -6.98445174367265   -1.78018164420219
C          10.43298056222430   -5.63236262852040   -2.18902347086635
C           9.46142630010928   -4.75404926271132   -1.79470398804602
C           8.38375267408606   -5.19731141809194   -0.97413853476574
C           8.27655070613578   -6.49697233392946   -0.57185836232971
C           7.50380472840373   -4.05334633038215   -0.66681261632049
O           6.46885310581260   -4.05323674866359   -0.03989418773193
C           8.19736043089824   -2.86677744637981   -1.23761872404072
C           9.26355169618714   -3.33636025668370   -2.08699588590657
C           9.80122347957741   -2.66578643174671   -3.15754925879990
C           9.33013365254359   -1.40868607908262   -3.58448213869941
N           8.93446401184549   -0.40488941778146   -3.97755019372336
C          10.80980040459581   -3.18994171137128   -3.98790204827502
N          11.65812988555156   -3.55769432432512   -4.66878763858219
C           7.82293424738287   -1.62195350975611   -0.81122691735526
C           8.53375860851920   -0.41345090713325   -0.79432285190567
S          10.25224630178663   -0.30513072195885   -1.02034292039374
C          10.29907469436654    1.38703088755441   -0.67857929892592
C           9.00551358326540    1.87002258936958   -0.39359731999150
C           8.01059433302859    0.85200620845361   -0.45210793004343
C           6.66452897757824    1.17075540894876   -0.20575443424135
C           6.33988743236784    2.46374304467753    0.09769177140739
F           5.06566749574321    2.79133189732476    0.34166519509877
C           7.32706670440461    3.47299848489902    0.15945262906727
F           6.95559630231225    4.72388488488803    0.45930559284300
C           8.64261441880093    3.19200247087591   -0.08187051680608
C          11.50044102066780    2.12275269695105   -0.68112023138684
C          12.70105559210437    1.60749447450124   -1.05943745038212
C          13.95981717804024    2.25052740872046   -1.04211974267991
S          15.29725093010051    1.40228033399358   -1.76492826065900
C          16.42482959142356    2.64838156001731   -1.35597666415047
C          15.76950630732834    3.67994744084069   -0.68923868638958
C          14.39420732776556    3.46798192924060   -0.51727774012477
S          13.29620823275025    4.56825785415331    0.30269303488171
C          14.21483363457533    5.86176458730674    1.09025109578719
O          13.58752972914288    6.60996790338682    1.78481054197957
C          15.69550559678717    6.08969008694255    0.88354985600789
O          16.23136146165227    7.02042787159820    1.41709434620762
S          16.69443346180534    5.08787757433695   -0.17006357367128
C          17.82779277438124    2.60136145565561   -1.60620943936247
C          18.51548426404474    1.70147546787148   -2.33181950987859
C          17.89197018636503    0.56544734145350   -3.07306607114176
C          20.00449136928958    1.82764888186967   -2.44979420763862
N          20.65459335926671    0.58962110808573   -2.07234579573907
C          21.94048100147148    0.32091206172943   -2.32499466243144
C          22.82592525039139    1.21186775015801   -2.85731143815210
C          24.12396321801131    0.84587118344907   -3.23285464875308
C          25.03608177022802    1.60537971582259   -3.92033083999101
C          26.45980029266710    1.19817242077401   -3.91226275882294
O          26.91022896459899    0.13899699194823   -3.53000251404713
C          27.20641625682382    2.36846775776081   -4.41489675581088
C          28.55450426356430    2.55810091463834   -4.49531663620185
C          29.05008058391115    3.79833223072806   -4.95816046511519
C          28.12932768702544    4.82103854409340   -5.32624058532460
C          28.62771123052373    6.06131313655375   -5.76962663604211
C          29.97917789445396    6.25543766463762   -5.83938816360765
C          30.90059489539940    5.26125092498321   -5.48538535172333
C          30.43340014191930    4.05125112647268   -5.05244331630394
F          30.45735650321842    7.44157175768635   -6.26104335662118
C          26.73543232617320    4.58966236858217   -5.24456208221850
C          26.27940536031443    3.37846002200276   -4.80085290953089
C          24.92164137674386    2.85892755318962   -4.61835894459352
C          23.79939648224320    3.41206400371659   -5.19408911171111
C          22.52275675357532    2.82835281495961   -5.23576159443296
N          21.45613741451895    2.40377741115510   -5.32445465874282
C          23.80330516721304    4.62854974869456   -5.90749551361409
N          23.72800901754574    5.61710807907191   -6.48758013744410
H          12.16443329934213   -7.60156984081700   -2.78397448804590
H          10.13358425200171  -10.70663594643909   -0.67648520901335
H           8.37533277174776   -9.10438279571539    0.03216385750429
H          11.26865180504162   -5.32275691954522   -2.79675320432712
H           7.44757302410720   -6.81475116807850    0.04250316094877
H           6.85993832249861   -1.60002788517431   -0.30947426932998
H           5.88893801427743    0.42455343810063   -0.25592879674519
H           9.37282404286435    3.98270712596848   -0.03308810103178
H          11.42504097541996    3.15235226817320   -0.37077502270003
H          12.72335167785350    0.58875509108773   -1.42848134842937
H          18.37388830929204    3.41129988712372   -1.13930880144774
H          17.06709999444503    0.92138863459434   -3.68954198863824
H          17.47742453527482   -0.17561352679835   -2.38822677864571
H          18.61964296223310    0.08352428519104   -3.72050073292870
H          20.37202068831472    2.64902204776211   -1.82401390388532
H          20.27044194101599    2.05661297332000   -3.49679835431341
H          20.06875244574484   -0.13336104270145   -1.68778360122968
H          22.25866598549427   -0.69133363977547   -2.11188174282930
H          22.51446695793127    2.22982021353655   -3.01537743535057
H          24.48829775085651   -0.12479711939242   -2.91255059583597
H          29.23695245417512    1.77371231991985   -4.20401075492807
H          27.94733771112595    6.84894409726213   -6.05365779915639
H          31.95565199278017    5.47170711467953   -5.56084279705243
H          31.12362143758850    3.26943002260974   -4.77291993069602
H          26.06549461909791    5.38721579999738   -5.52342066135223
