108
 SCF done       -212.417311992348          0.000736688814
C          10.43504573426087   -2.36112976601262   10.33406035662142
C           9.73317108327533   -2.22238653480297   11.49940001060211
F          10.36259845900823   -2.39067612548201   12.67534528381743
C           8.36708141953352   -1.90911711888888   11.52158097705025
C           7.70910043303763   -1.73513504406441   10.33596459805157
C           8.38349289604009   -1.86760665155410    9.10481339750801
C           9.77262117381940   -2.18912724951061    9.10333450427444
C          10.46747062647312   -2.34125696208004    7.88027829331725
C           9.79261340431425   -2.17570546615716    6.70178005462799
C           8.40847965576859   -1.83500474675538    6.70948358320903
C           7.71272550200287   -1.68750735031181    7.87460327184771
C           7.93768685085558   -1.68079077420306    5.32167587246522
O           6.81710896679142   -1.44542779848231    4.93066401892057
C           9.15822517260464   -1.81922739063025    4.47766737865038
C          10.22428347258877   -2.31914682985228    5.31377404772601
C          11.30382557009731   -3.05463291505050    4.89520949410997
C          11.50819472127626   -3.42351578672895    3.55143869024838
N          11.67648235671522   -3.77198789901011    2.47008502620061
C          12.26250757198897   -3.61086671805292    5.76557731735542
N          13.08022813529209   -4.07366879919888    6.42477234501159
C           9.09984899225167   -1.41466636832652    3.17611705012076
C          10.12179831804625   -1.05107049614438    2.28052695466823
S          11.70806453809052   -0.55988375275383    2.77103804085004
C          12.19200789655331   -0.13444797646770    1.16967516713541
C          11.16768247128373   -0.42614484352435    0.24976773228950
C           9.98446920179459   -0.91096852137681    0.88569488366312
C           8.85362359248134   -1.24530685817276    0.12003383619829
C           8.91398325394126   -1.11484793354370   -1.23836838529504
F           7.84862927948585   -1.41843867315057   -1.99003341896653
C          10.10091115039308   -0.68918304553692   -1.87477124988855
F          10.13559275777335   -0.62450558983401   -3.21458409284802
C          11.21270859897103   -0.35494103796192   -1.15575545832614
C          13.47605475877303    0.44678656567633    0.99580544424139
C          13.88850299901684    1.19781139803955   -0.05209056777571
C          15.21053379288115    1.73222285193190   -0.13430027725226
C          15.71064720557427    2.49230330713613   -1.12586891337423
C          14.98488072823558    2.93422887429210   -2.35224576808389
C          17.16034700335980    2.93366631728815   -1.04431154086539
N          18.04581335120571    1.79670140070870   -1.09698527134791
C          18.76616925751929    1.34165674801944   -0.08020884684118
C          19.60157210997557    0.25204924949715   -0.17798636067502
C          20.38217071979312   -0.24382800005557    0.86507489297307
C          21.55363393483580   -1.00062453686417    0.76246074325036
N          22.12145025775817   -1.53922665439531   -0.39321637928350
O          21.49368688958820   -1.47063315349197   -1.44409066186809
O          23.22354610109899   -2.05512451816871   -0.29629884589300
C          22.18114686558522   -1.04622950034778    2.04180833063266
C          21.43224559677907   -0.33618508758488    2.94380692088868
C          20.25925052502492    0.12517074011396    2.30246816895247
C          19.11486544978917    0.63508240123220    2.90263026291744
C          17.76841610464742    0.29589943641075    2.54064368868731
C          16.92797114420478    0.74452139598608    3.51580689902520
C          17.69512034492736    1.45368776119619    4.49001709691456
N          17.11185309706253    2.12244554111838    5.57914269227741
O          17.83435989917518    2.74849113446478    6.33624137660082
O          15.90082940677947    2.03483938651099    5.70243427346782
C          19.04631088006174    1.41236241515335    4.13574328601864
C          20.12835157204301    2.13410428891455    4.69833219075526
C          21.21862225678207    2.48024444399319    3.95673651918061
C          22.37529747718846    3.10462589306401    4.46461479180826
C          23.49054549476213    3.31863165312539    3.69786507764024
C          24.75149746300787    3.89852467841718    4.12420446139376
C          25.02631720067902    4.47063445831085    5.33926901094243
C          26.27316366067153    5.03490391905166    5.68345841493580
N          27.26058907533491    5.51207756611450    6.02242953372292
C          24.11814511745618    4.59852459233837    6.41186116276696
N          23.44324544533247    4.74488200895258    7.32876683849701
C          25.69088328091613    3.78811187913481    3.01317838530135
C          25.02585836474795    3.19686249506417    1.91093893297349
C          23.62756281756448    2.91471001079654    2.27334264313612
O          22.77862882367549    2.45484655166281    1.53350023412208
C          25.64907969806481    2.94820348881865    0.71154433493834
C          26.99573895423715    3.30363063354895    0.59117224768156
C          27.65282588029325    3.89865756802128    1.69576312554163
C          27.02239513591317    4.14647164965021    2.90907326477405
S          29.31126252036149    4.26248344743679    1.33110605345332
C          29.10363448008487    3.61965002547330   -0.27698015090959
C          27.85671285237042    3.15507288140065   -0.52989726726808
Br         30.55025867707307    3.62706780399386   -1.46902581584592
H          11.48553560357178   -2.60551864606456   10.35523195631644
H           7.86599288546326   -1.81226735257234   12.47162978160239
H           6.65702849711778   -1.49298471170510   10.32728663279421
H          11.51984725541821   -2.57644282108050    7.90641057553052
H           6.66218594028234   -1.43885717884355    7.85860323206536
H           8.08841383171145   -1.27009661063785    2.80613084531330
H           7.95167154982548   -1.61288724077534    0.58065760161895
H          12.11311620938560   -0.08568357177307   -1.68012072736482
H          14.16022331434248    0.29870814772942    1.82202977598719
H          13.19695696363746    1.43720811815728   -0.84245281815137
H          15.86177477735415    1.48684206547944    0.69664407272533
H          13.94755537073152    2.61976731105211   -2.35674599358502
H          15.47050978447805    2.53331231697711   -3.24274829760110
H          15.01396668065355    4.02153110592843   -2.42600007015221
H          17.34449762557616    3.46785349608531   -0.10865643040097
H          17.39279848403888    3.60244924847646   -1.87814867811797
H          18.03037647169151    1.24840856984906   -1.94808295102308
H          18.71636108759354    1.92005072128483    0.83257529410524
H          19.76061800556388   -0.19639352389634   -1.15055412339641
H          23.09942308053807   -1.56960939115367    2.23377707247505
H          21.63517881479032   -0.23462275935500    3.99227297596203
H          17.50923376998651   -0.33357060417630    1.71011107690316
H          15.86568452254828    0.60860109690938    3.58833752496064
H          20.03385553143709    2.45839181296736    5.72707256057779
H          21.22273904348401    2.25133561915052    2.90153528033238
H          22.38210781176625    3.37633760458613    5.51204709606782
H          25.11429537081040    2.49035539195827   -0.10578335552763
H          27.56989296263178    4.59712413103669    3.71966517743596
H          27.55502082445907    2.72364326722692   -1.46680930179463
