108
 SCF done       -192.543789419300          0.000675567710
C           6.42581903738123    7.03017951023514   -1.31201347725538
C           5.31554832805017    7.76353879277679   -0.99821319311616
F           4.44082824977998    8.08824160685023   -1.96769912444789
C           5.04497182671639    8.19642526000076    0.30694755373175
C           5.92164765059069    7.87446408479856    1.30543695305600
C           7.08173997099916    7.11880199216213    1.03869328182769
C           7.34021923658936    6.69041832814338   -0.29620842549088
C           8.50167226726331    5.93829516499010   -0.59001614830190
C           9.36718585677732    5.62142168836303    0.42075275767758
C           9.09639702457319    6.03805187874389    1.75680966704167
C           7.98904615544665    6.77361922039365    2.06578740441728
C          10.15750287903524    5.53244712104539    2.65113658238387
O          10.29293818197963    5.73284098483172    3.83692214396266
C          11.00162796642161    4.66105193575402    1.79162692689558
C          10.63529488497516    4.89948724686245    0.41375958297509
C          11.45618592286532    4.73751936075042   -0.67264964353401
C          12.79476821426811    4.31084042451590   -0.55720823550783
N          13.90233840959041    4.01922126111487   -0.47399750119097
C          11.08592018646130    5.06503113625189   -1.99095281326855
N          10.82015865198049    5.29794547457881   -3.08331829876148
C          11.85121473062470    3.76002506156470    2.35894745287944
C          12.38376962771780    2.57693943242358    1.79948949868124
S          11.62991581072530    1.74495013738139    0.47091437260834
C          12.78182035202297    0.44514385354723    0.55211480601634
C          13.69933357882880    0.65782803473014    1.57487171717850
C          13.47054592286825    1.85034742260431    2.27354808732734
C          14.33093659198432    2.32042591155344    3.40206365430101
C          15.65979267976534    1.56972674021913    3.42481678130968
C          15.40975259162885    0.06542189784687    3.30095307541013
C          14.52783942797430   -0.41762705285332    4.42676592182252
O          13.57509297201343   -1.13320659824645    4.30832474054889
C          14.80718867132021   -0.28039188891876    1.93805920499820
C          12.61549772928426   -0.59586350018658   -0.40375539884783
C          13.41020677069016   -1.66200551560729   -0.64448517814539
C          13.08575891078565   -2.62011748350211   -1.65720816682959
C          13.77918975172999   -3.73844458146720   -1.93087351292848
C          15.00021521675440   -4.16464580892692   -1.17299957677860
C          13.28420276045236   -4.69106557917971   -2.99264055153878
N          12.63332216486796   -5.83948573144791   -2.39647247434616
C          11.37309215882423   -5.79475624592093   -1.92991905225961
C          10.80008595889102   -6.75387600209174   -1.15048634093142
C           9.46957119469010   -6.67926746952749   -0.71228699910829
C           8.84685088306991   -7.61079570377854    0.07911056359038
C           7.52634550711640   -7.55357260984391    0.58127115044397
C           7.17683209210734   -8.61575808631718    1.35928963112207
C           8.20000282217086   -9.57915641829958    1.50791025003245
S           9.62544948881327   -9.09262323329057    0.63392678835362
C           8.14814458477028  -10.75708113984128    2.23622663254501
C           7.07303190530533  -11.24451083444697    3.00714654461409
C           7.34909097738575  -12.42910719044434    3.62315640747176
C           8.63797290975478  -12.94658100029146    3.34645481693047
S           9.48675431961953  -11.88201958564273    2.27718435845822
C           9.15899276847407  -14.07341720452283    3.97498645353451
C          10.38838942966061  -14.69887239871253    3.85016483639601
C          11.30796252129956  -14.67537929176499    2.80450557080657
C          12.65583841998772  -15.17126738358331    2.88146116530693
C          13.35626974654533  -15.48560791270506    4.02421158955412
C          14.68260089684636  -15.95537736592546    4.03216282746572
N          15.76160867801804  -16.34552298512397    4.10220286427616
C          12.86721200464694  -15.34613164861747    5.33760934882467
N          12.56099786531828  -15.23551876192198    6.44028594858912
C          13.20274604162351  -15.20162410030226    1.52499687292004
C          12.22139916774242  -14.69451134590217    0.64079196080473
C          11.00399812726651  -14.36169654498388    1.41408126646965
O           9.94342107730885  -13.97299776375354    0.94478572782072
C          12.42619060819266  -14.59086639294257   -0.71111083138027
C          13.66354538575873  -15.00932119130274   -1.21724776286783
C          14.63485768600777  -15.51692742016041   -0.32725600427016
C          14.42672448133646  -15.62080477792736    1.04437342760880
S          16.08691325964736  -15.98537405721701   -1.16378361916749
C          15.37451670654507  -15.49564488444555   -2.67730348134003
C          14.11729710761335  -15.00769743885886   -2.56566505090951
Br         16.36046142396589  -15.66990008982348   -4.26602889989656
H           6.60423197713459    6.71713011089003   -2.32888331488530
H           4.15291993239726    8.77262674073162    0.49477262208916
H           5.73448396342092    8.19642628088157    2.31880526384397
H           8.67323365292275    5.62007812176728   -1.60642577591615
H           7.80485526318371    7.08803541129289    3.08215892781059
H          12.06541950861052    3.92494913853884    3.41063126445769
H          13.79480663566418    2.15521233562687    4.34363389107207
H          14.51171093081921    3.39267144216725    3.30842739230303
H          16.19451838914922    1.79204011798409    4.34959516696123
H          16.27756652442562    1.89620097058999    2.58656949417712
H          16.36269800891355   -0.46584252381998    3.42097476827113
H          14.85755946738485   -0.05840682906543    5.42230240607079
H          14.41276783161997   -1.29854734921547    1.98236698589068
H          15.58402773724350   -0.23916321996195    1.16920468659683
H          11.72839188815319   -0.48519369529857   -1.01737746626490
H          14.31666438114088   -1.81988783554254   -0.08724096828652
H          12.20171338119646   -2.40032235215955   -2.24278264011949
H          14.75457856744030   -4.38250103121132   -0.13342581739613
H          15.75053448312456   -3.37575910130895   -1.17840475268526
H          15.44216414371636   -5.05433922055500   -1.61461471996630
H          14.11663897266821   -5.05020417602586   -3.60376211371098
H          12.56329163006954   -4.19092421073045   -3.64372871825242
H          13.23151118888132   -6.56423313616128   -2.02624016606685
H          10.79384335296615   -4.93857304410889   -2.24854983555631
H          11.38372199827558   -7.61077253443019   -0.84220458126891
H           8.88750044810863   -5.81463306780635   -1.00475082399834
H           6.87708075473928   -6.72596504862459    0.35489524964140
H           6.21517611806782   -8.73473645003966    1.82421687558477
H           6.13884532685002  -10.71948266737306    3.09381892396272
H           6.66217904696995  -12.95377187583852    4.26373888638046
H           8.51810634933679  -14.46637941683020    4.75674254577152
H          10.64731983360408  -15.34398747328082    4.68212792923306
H          11.65838823697942  -14.20170225250037   -1.36135156516067
H          15.19793228204017  -16.02062659936549    1.68131455224024
H          13.53055242258923  -14.66308630349463   -3.39772398160090
