93
 SCF done       -184.183169445397          0.000882963161
C           8.82838618382180   -6.68119069749952    0.79750047210457
C           7.97410214256923   -7.36251592830577    1.61941266134564
F           8.41207485366849   -8.46464006832231    2.26211446523493
C           6.64919300216201   -6.96058558734485    1.82476256862552
C           6.19099607105915   -5.84424558362301    1.17968555205238
C           7.02815389368828   -5.10454896477794    0.32178721715897
C           8.37236397770415   -5.53196597404337    0.12471129143170
C           9.22952036027484   -4.81046691174834   -0.74162473860499
C           8.75471378127308   -3.69766048656516   -1.37623080412582
C           7.41394736650008   -3.26600642804474   -1.16539346392766
C           6.56339536024016   -3.94661033478922   -0.34713911692326
C           7.17948247174904   -2.03084158948704   -1.94893052380918
O           6.14392608577369   -1.40571242653385   -2.04910448432751
C           8.48544622814559   -1.69890665342898   -2.55136397800161
C           9.38107944041259   -2.78589729908025   -2.33131830952494
C          10.51300981553801   -3.07254557164271   -3.07673028657751
C          10.85261593600882   -2.32429087536357   -4.21079531519196
N          11.11089009187667   -1.74552466881493   -5.17220806684515
C          11.35677980585738   -4.16865634690655   -2.86004997715298
N          12.09746445360703   -5.04067043631973   -2.73394308837275
C           8.67545823698510   -0.46668262087303   -3.16188841813866
C           9.84937329435449    0.25237613969818   -3.30807037651113
S          11.30797697455455   -0.09740126447198   -2.41260468905245
C          12.15871798567241    1.30028410730629   -3.02635040577958
C          11.33432302310456    1.99836062173515   -3.96135974086439
C          10.04510938422229    1.41692392304236   -4.09946913331236
C           9.11965947013187    1.95194152155546   -5.00291445067309
C           9.47424351194013    3.04475232146312   -5.75315978501992
F           8.60302033118337    3.56459097239287   -6.62985878118449
C          10.74790486343748    3.61532716663713   -5.62552074652987
F          11.08377734412739    4.67626524079886   -6.38223656776725
C          11.67195384243103    3.10391928314014   -4.74698473366706
C          13.44240470258463    1.50085771871799   -2.56015906462552
C          14.25275470929823    2.62794804019220   -2.69832530717336
C          15.56344728321977    2.73361199811176   -2.28592107474026
C          16.42920187913783    1.74076259324542   -1.80377612449806
C          17.70904514469386    1.97976594912199   -1.29407302398310
C          18.37553270240041    0.84631100342957   -0.87543554167321
C          17.64770619910806   -0.32491682616496   -1.06563465576206
S          16.09687514139365    0.02687763926984   -1.77671688010327
C          18.01079722306555   -1.64873323598079   -0.75999581129220
C          19.16063732343288   -2.11680405981281   -0.12972492866903
C          19.17977929068399   -3.48960254050465    0.01055888805790
C          18.06944415102720   -4.14319450523917   -0.53170962590502
S          16.96045161102942   -2.97004319665660   -1.18282611224976
C          17.88926508099025   -5.53855631217794   -0.47413007509022
C          17.01934709601440   -6.40801306250641   -1.07888389695849
C          16.07399767486422   -6.27099422231582   -2.11160764014736
C          15.32646817748027   -7.34880081797768   -2.61027705452035
C          14.52961969336299   -7.04160060996969   -3.68818764863282
C          14.62164704671852   -5.70193092295093   -4.07198611740278
S          15.72913141727736   -4.84426493874647   -3.03894827561411
C          13.96621252816379   -5.02793196781934   -5.10436999570612
C          13.10378156401832   -5.54970799718744   -6.08242770314397
C          12.63042362901345   -4.60619452564400   -6.95239080066500
C          13.08693775151597   -3.29649418304849   -6.68667108512633
S          14.15830575318708   -3.31001622604535   -5.30232569075951
C          12.72317962084125   -2.15599601111536   -7.36457579987286
C          13.08700737682097   -0.83928709877697   -7.06457071391066
S          14.08355691358947   -0.33862750813415   -5.70592540917264
C          14.00023142270738    1.32641763946411   -6.10203596092463
C          13.21943482712102    1.53169845244099   -7.21903412690102
C          12.70663866290245    0.31067067370916   -7.74601396430431
O          11.95837809725032    0.53505149282571   -8.83887284621361
C          11.98559003665078    1.88418309102908   -9.02397168027352
N          11.28913348720089    2.40713697645194  -10.14368938282700
O          11.38549427828421    3.60367042626489  -10.32961183099645
O          10.66470271418637    1.63067752471194  -10.83254938765382
C          12.72726974228856    2.54841841145230   -8.08440351611380
H           9.84325566294558   -7.02159003101111    0.66147104864993
H           6.02001676035922   -7.53692954391006    2.48432883231700
H           5.17290165253100   -5.51405078759427    1.32223661021155
H          10.24432156721206   -5.15278552336187   -0.87392329014114
H           5.54633142636572   -3.61184089927000   -0.20882111602785
H           7.76063470916411    0.03149181037056   -3.46488917881565
H           8.14253360574059    1.51623822130029   -5.12947129441845
H          12.64201025547190    3.56520090477940   -4.70270933947351
H          13.82701785429611    0.69200648272546   -1.95375675030155
H          13.80807961406613    3.52994356264726   -3.09236468601666
H          16.01267319799036    3.71808907649903   -2.33705389513485
H          18.11792212418675    2.97267790937123   -1.22876805022476
H          19.36375650714326    0.85264747635235   -0.45263488833784
H          19.94437038274769   -1.46576759713508    0.21233319232939
H          19.98473564939684   -4.02995713919762    0.47725896417447
H          18.60459592295264   -6.01069524628510    0.19131237990580
H          17.10609047703393   -7.43558077851597   -0.74249769564032
H          15.38662535061326   -8.32937145972073   -2.17131236469179
H          13.88347747171784   -7.74368835352254   -4.18201577061942
H          12.85283503983183   -6.59389386473112   -6.12455801938690
H          11.95628943162296   -4.81046179097068   -7.76506726078806
H          12.05839886338784   -2.26977933493631   -8.21095755906157
H          14.52708791281488    2.03798226795619   -5.50071668675764
H          12.88165702294479    3.60686119718403   -8.04041756248989
