102
 SCF done       -192.749166946621          0.000674905451
C          13.58617974946872   -5.15168452894917    6.22302642708942
C          13.50824321409066   -5.50120387392773    7.54254374114393
F          14.62595093998748   -5.50776598007575    8.29245996398400
C          12.29966093145901   -5.85625471581581    8.15609041005793
C          11.15389172101417   -5.85257865178568    7.40989179386811
C          11.17638541562074   -5.49891211776165    6.04551120189678
C          12.41645029569452   -5.14448897933847    5.43902139950272
C          12.46625055180426   -4.79863200655112    4.06763796203555
C          11.31216129498819   -4.80152118110046    3.33364638112613
C          10.07248421533762   -5.13857601766409    3.95012959013471
C           9.99667072070886   -5.48597378411658    5.26727184560868
C           8.98932777699494   -5.02669505889819    2.95412304394299
O           7.81207793947074   -5.26927403593524    3.10238706840989
C           9.63781099975074   -4.48645180019345    1.73101279094814
C          11.06444672151074   -4.54570626364211    1.91578185055500
C          12.01111085666086   -4.62834952496916    0.92304475155249
C          11.67923562264913   -4.74239951183613   -0.44055638627505
N          11.43853861284408   -4.88796865717359   -1.55418761162822
C          13.39604206561208   -4.69959030752943    1.15987389584323
N          14.53672413267299   -4.71546257270713    1.29522958045479
C           8.83553654168720   -3.95823996045613    0.75378573858080
C           9.10049009732275   -3.02806046535800   -0.25781661391946
S          10.54269348444076   -2.06115371574271   -0.34478573448130
C           9.98703955980210   -1.15892128172488   -1.70650660327276
C           8.70008725402474   -1.58467299473555   -2.09025330595230
C           8.19701787415526   -2.63552228573300   -1.27031157391775
C           6.93047638436964   -3.18343925938764   -1.53282417541994
C           6.19804512404669   -2.68349149103927   -2.57375725588187
F           4.98472964818040   -3.18548411076255   -2.83766550385300
C           6.69583260428592   -1.64095465449623   -3.38559066102307
F           5.94032979002813   -1.18426260088479   -4.39524145734054
C           7.92720947983296   -1.09478772219433   -3.15794753751261
C          10.76877046015650   -0.15058745159086   -2.31240951540404
C          12.06028889074791    0.12512715752657   -2.00324725743467
C          12.79786911202498    1.15698121563809   -2.65383734376201
C          14.09570293182342    1.45196513946817   -2.44913148490059
C          14.99401360866973    0.69754646061204   -1.52099383644238
C          14.73461428460855    2.59791946258804   -3.19198604148764
N          15.74224111461115    2.11939493996774   -4.10603985805406
C          17.02453084773679    2.50676521230289   -4.12373106013276
C          17.96050427165848    2.01772145229898   -4.98831109705148
C          19.28368007201236    2.47482487268851   -5.02785159669780
C          20.23488708173101    2.02098535798109   -5.91035136039789
C          21.57523743089910    2.45016572568921   -6.02823798514780
C          22.28078243769325    1.81853776822618   -7.01078023314798
C          21.53338695391212    0.85265142450435   -7.71700100846025
S          19.90637373971222    0.77015039840087   -7.10501210283069
C          21.95542258595988    0.03612179425804   -8.75784079643019
C          23.22079664052041   -0.01543557789677   -9.36852038196125
C          23.30995397726802   -0.94696135583795  -10.36669636001281
C          22.12168795942053   -1.67211063658219  -10.58582627599461
S          20.87485738572946   -1.13059681779961   -9.48880551368310
C          21.92209761738610   -2.68223435072377  -11.51466511078569
C          20.71601132860422   -3.35103724126727  -11.64936626940602
C          20.46707675026472   -4.37965488500061  -12.54348632020479
C          19.23152925295958   -5.09469259668273  -12.70072516492928
C          18.04960635040746   -4.88631268854614  -12.02254639740761
C          16.87396174568314   -5.62979848428913  -12.23731289177896
N          15.88175650714275   -6.19745079490678  -12.35919333078516
C          17.82604615101621   -3.91194550300807  -11.03152490713122
N          17.54573053217011   -3.14881881547665  -10.21798119718381
C          19.43293195243038   -6.11036897991661  -13.73476858837415
C          20.76268562097338   -6.01291884871100  -14.20965784195196
C          21.45744607595918   -4.92473206065245  -13.48519901317540
O          22.61174832350902   -4.57711691915871  -13.65465491283368
C          21.26286060806309   -6.83449941939674  -15.18813089040163
C          20.40842935156314   -7.80399789344294  -15.72647997925587
C          19.08307484352098   -7.89459247813238  -15.24568468929712
C          18.57663012196052   -7.06097222710909  -14.25453281015889
S          18.19822098019113   -9.16065968859680  -16.04447579099997
C          19.60506976193430   -9.54378527477065  -17.00042608535266
C          20.68144347744768   -8.76674436576308  -16.73749073841461
Br         19.51959406051521  -10.93553646844726  -18.25673926434905
H          14.53549245952721   -4.88874654995599    5.78309994525933
H          12.29938903979913   -6.12431655545655    9.20067564122674
H          10.21031641282966   -6.12243062499712    7.85982423155209
H          13.41730102864489   -4.53229287881693    3.63393190676866
H           9.04867432523962   -5.74991109943458    5.71146359805832
H           7.79093268013458   -4.23791891355651    0.85647203656265
H           6.52778743073164   -3.98694344817632   -0.93857670039667
H           8.28440442972396   -0.30585945940872   -3.79871940824739
H          10.28611412092977    0.41842916107129   -3.09556091723483
H          12.55282735057050   -0.45753400231506   -1.23794824901874
H          12.23945426621775    1.75216466406671   -3.36622959545645
H          14.84410329588888   -0.37597074747226   -1.60828686440386
H          14.79110794400891    0.97885390009490   -0.48700826023451
H          16.03742872518725    0.91868863450756   -1.73314020373567
H          15.21271807749733    3.28076217513193   -2.48343243658334
H          13.97147938322879    3.15627096155031   -3.74800588277140
H          15.45680035294856    1.40050380774089   -4.75569634322582
H          17.29266492267239    3.27172448098022   -3.40630533859263
H          17.67332411277774    1.25136385481771   -5.69554197765921
H          19.58313588722918    3.24507159201734   -4.32870734741055
H          21.97898277973256    3.21371099160637   -5.38661803890784
H          23.31116438681114    2.01997598302469   -7.24135103948793
H          24.03006197991981    0.62499758509405   -9.06631682900047
H          24.19518867898314   -1.13408767999246  -10.94790717147758
H          22.75135472109077   -2.95544715643821  -12.15065092912462
H          19.91090650406279   -3.04167999616019  -10.99382888547541
H          22.28158319373200   -6.73497676627787  -15.52889128098144
H          17.55808431773045   -7.17247175665714  -13.92281691711367
H          21.62962237107563   -8.86599660270993  -17.23375845523552
