104
 SCF done       -202.000928394122          0.003681701522
C           2.56555926175501    2.60429101983723    9.47975839165271
C           1.69468715871375    3.11779508086499   10.40090473786800
F           0.96473872184222    2.28046635959024   11.15642244348056
C           1.53589656091485    4.49501064457986   10.59512733659027
C           2.27766701821132    5.36022312239434    9.83980925881330
C           3.18256354917797    4.88474976418864    8.87039333529198
C           3.32418803253660    3.48008499122578    8.68267513068814
C           4.20023205181560    2.97773425720667    7.69051264321520
C           4.89554650963222    3.85259128975032    6.90327506075585
C           4.78254266353031    5.25573294034974    7.12476416695362
C           3.95072199040314    5.76791114014168    8.07765566865436
C           5.67417039461258    5.96509486429911    6.18660598599815
O           5.87392111192344    7.16170632079818    6.11378724911342
C           6.21345360705677    4.91758559710546    5.29412427263389
C           5.82973028885144    3.63141396988626    5.80081186995088
C           6.36985304211673    2.41520036012840    5.44699368712040
C           5.97109053790208    1.18513545299210    5.99960763096651
N           5.67029742845173    0.15135035651489    6.40220958302533
C           7.46487028853388    2.26274788365710    4.57373612597802
N           8.39033520818395    2.08941439994177    3.91597124462183
C           6.82869463052507    5.27164737890522    4.11162983823229
C           6.87152139208831    4.51352670225301    2.94697236005534
C           7.52336733792614    4.88351399104696    1.79184531099450
C           7.42145067657686    4.21567119276562    0.54756182610701
C           8.19543640083992    4.75201077398509   -0.43257527448901
C           8.96699614489075    5.86150028988344   -0.00692701533079
S           8.63140192878242    6.22799197382832    1.67508593918630
C           9.90143783569457    6.56216381252366   -0.73282379514832
C          10.31259959629842    6.31691309072412   -2.07235154361735
C          11.28656033143073    7.14367056134713   -2.51010298126619
C          11.70798504176291    8.12957627096193   -1.55382925572225
S          10.79758460553395    7.90022809152163   -0.05521695372071
C          12.64923560972416    9.06374984075206   -1.78190480631681
C          13.10083152882919   10.18728676631071   -0.89241030947529
C          12.28386062341116   10.36156955499457    0.34532227419963
N          12.59515710175661    9.88792033009321    1.53096250279085
S          11.46537946027693   10.34670135275133    2.60122873003034
N          10.55534592866900   11.19979424832066    1.55937893389734
C          11.09462815151538   11.13699977627167    0.36534716370206
C          10.54866952503204   11.80383933867240   -0.86658149307692
C          11.74329813862914   12.22118573317064   -1.66407772358222
C          12.94382796424382   11.46086755858691   -1.67717107514855
N          13.86735188763935   11.98608569790289   -2.44753260748281
S          13.28797808864038   13.35048197396400   -3.11463178730666
N          11.81809433891654   13.28978946610838   -2.42240245750654
C           9.73501826974120   10.80629294988201   -1.64688231474663
C           8.67297944871356   10.13539210026773   -1.16180503268437
C           7.97933011347476    9.06432099969707   -1.81873170391386
C           7.04091744694510    8.46557620671782   -1.05325802421699
C           6.89418258887575    9.04204332153083    0.23864766089324
S           7.98452127111364   10.39133963276001    0.44155467270936
C           6.07285929236972    8.61090915565364    1.25373207485326
C           5.91470002901260    9.18656623780715    2.53572263725421
C           5.08946033184671    8.48322395589198    3.35774060782355
C           4.58998649174370    7.28970425065491    2.78304331679030
S           5.11368856301521    7.14701619083841    1.12257202630238
C           3.88727174430909    6.29907345051704    3.43944180608862
C           3.71649700404642    5.02982629180674    2.90082522882312
C           3.23978597563149    3.87738823590215    3.49024268912759
C           3.71749866856354    2.58769674412628    2.94489748697120
O           4.38159873466048    2.43062422723676    1.93642945001043
C           3.31958633269082    1.56682438054340    3.92627118656747
C           3.59384552673576    0.22991300665530    3.93625417071946
C           3.14699423570576   -0.55616371205743    5.02120159834680
C           2.38992703732033    0.05844635113642    6.06003827491074
C           1.96173824953302   -0.72676969086106    7.14679222427556
C           2.29430285224725   -2.05249322772905    7.18805842675911
C           3.04052266530999   -2.67346255422828    6.17839880958418
C           3.45129668596397   -1.92887847380645    5.10822489762694
F           1.89326787448178   -2.80087366231258    8.23256609655631
C           2.09747810450709    1.44242186144613    6.00735312251657
C           2.57466515311454    2.19182587915973    4.96715810310879
C           2.46224119036235    3.62057099062498    4.66979034939046
C           1.63588348617284    4.50057292423137    5.32983576467653
C           1.33161129450993    5.79941327118715    4.87695065143071
N           0.99975122131921    6.84470840782681    4.53353800117232
C           0.90503890578468    4.18866159882757    6.49180518977773
N           0.30167542329044    4.01409642685273    7.45419716389206
H           2.66968400074127    1.53742319421831    9.35851453172368
H           0.82933353736107    4.84444169855064   11.33080003476677
H           2.17147931877792    6.42633607086753    9.97098681938208
H           4.28658495516902    1.90952473641141    7.57308081291304
H           3.87712085175195    6.83462384437882    8.22777374769450
H           7.20030182539595    6.29107626284376    4.06300605468932
H           6.30209021615027    3.59739652948064    2.88697906804378
H           6.76789557458392    3.36915901628496    0.43247171786070
H           8.23967982867778    4.38143913120749   -1.44044167961877
H           9.87794654081137    5.52781187227872   -2.65906739767765
H          11.73051088545181    7.10547791543858   -3.48897813361375
H          13.14603567466167    9.04838790399647   -2.74364960418175
H          14.15545548062382   10.03184267786732   -0.63806997091838
H           9.93111592231626   12.66218830551849   -0.58411887909911
H          10.07948225128911   10.56993892047523   -2.64402842620237
H           8.23962210632496    8.77069972023060   -2.82016145796302
H           6.43843483461307    7.62542293770756   -1.35291532460932
H           6.42829799581625   10.09350865427980    2.80278471894556
H           4.87069919732140    8.74098619270637    4.37815892452051
H           3.58534324868832    6.51216832591624    4.45324373128974
H           4.16414181796382    4.86391820077400    1.92318588900097
H           4.16114249129147   -0.22092142690142    3.13542532155989
H           1.37872186509554   -0.28688578935818    7.94113369382676
H           3.27761786214171   -3.72152740237073    6.26888184115318
H           4.03137170745431   -2.38136917501833    4.31845323417244
H           1.52043810143135    1.88108836996349    6.80627249642083
