95
 SCF done       -184.656187235996          0.000958594476
C           5.40951991383373    0.57432671430278   -5.91250376442742
C           4.54080158424320   -0.02246778495887   -6.78328721373188
F           4.59965209201820    0.28553254682475   -8.09238798235389
C           3.58019360580119   -0.95351749147304   -6.36673705109936
C           3.50731523692649   -1.27965979759093   -5.04084124373990
C           4.37931791932004   -0.69578008322164   -4.09962131528984
C           5.34730156144093    0.25148722845278   -4.54322424206236
C           6.22607761361315    0.85942510299962   -3.61557845728026
C           6.14103673510467    0.52238222545345   -2.29296171071991
C           5.18356663678438   -0.43872715820831   -1.85734060188805
C           4.31679349166540   -1.03193150406514   -2.72798624922676
C           5.33267234672373   -0.64761557774771   -0.40268660223396
O           4.66720220615527   -1.35621702984671    0.31981308277563
C           6.52192620646004    0.15224684464158   -0.01532812856392
C           6.86966158850085    1.00569833274617   -1.12198792372017
C           7.52813687078587    2.20938218245862   -1.04526450650502
C           7.91033644000975    2.79510771643275    0.17709777042444
N           8.18712048352597    3.31924986850910    1.16104728021263
C           7.81448595608800    3.02295063731264   -2.15665171536430
N           8.10806919667724    3.70719560756738   -3.03114859576888
C           7.12479015239949   -0.10137229958034    1.18941874028530
C           8.43808771347473    0.13579224220004    1.61027804293024
S           9.73643329695489    0.54138481699596    0.52624976509324
C          10.93109215261970    0.52302264030000    1.77102516292510
C          10.34550107597513    0.19523170578251    3.01037359679268
C           8.94141356249436   -0.03169945061796    2.91795419993836
C           8.20582783223052   -0.35203149434562    4.07120459359043
C           8.86303755462090   -0.44866286147311    5.26613577717788
F           8.18320202879263   -0.75826802873686    6.37806671602231
C          10.25463131483547   -0.22576690211349    5.35789357480554
F          10.85171606243751   -0.32990943539249    6.55442196430206
C          10.99367716948612    0.09310486429193    4.25391789310664
C          12.28370463922570    0.82906075524489    1.50451495921966
C          12.73678671536482    1.24932039719780    0.29547005938241
C          14.09052444946779    1.59713470365436    0.03265705114217
C          14.54556642921888    2.06083345093913   -1.14943981757552
C          13.67872510148522    2.23051030487043   -2.35814421561496
C          15.97934943161136    2.46289278103953   -1.34878854216074
N          16.75317511333915    2.50724446733410   -0.13610739756568
C          18.10236117088112    2.29128586177745   -0.16214098992136
C          18.94434468183267    2.68473601162510    0.79962740411197
N          20.32008600052766    2.40147330900752    0.80730422681502
C          21.07377786585680    1.83324521064547   -0.21669456148897
O          20.65720921049176    1.46422560050503   -1.28603595784930
C          22.47066197307666    1.81389479961803    0.27196450986566
C          22.51943908968768    2.32034662005632    1.51589125564819
C          21.11664442883901    2.74991605717476    1.87696973133596
O          20.75332059815997    3.32882089243033    2.87096398486676
C          23.65041389309530    2.53263028364656    2.36298921741745
C          23.68725396322053    2.56860705502087    3.71396018253353
C          24.87042396805488    3.18604914033275    4.39684482332545
O          25.93502744929690    3.44169587018682    3.88800354889967
C          24.41930986338566    3.45424410577762    5.77131050274955
C          25.06556735356789    4.12653508359945    6.77009731262686
C          24.42660827530507    4.28511122500280    8.01910219617475
C          23.11790383124749    3.74984383822306    8.20820225244901
C          22.48450611632229    3.91848117901493    9.45494564516668
C          23.13649603357789    4.58604277482362   10.45437936576212
C          24.42335914680280    5.11780547161936   10.28853927130918
C          25.05248133952258    4.96507456339601    9.08477307980945
F          22.53479148679029    4.74643933358123   11.64509953344210
C          22.47326284333742    3.05612824017410    7.15821628611485
C          23.11783118274886    2.90248829783511    5.96009103306860
C          22.71745480893989    2.21655960233775    4.73727310032955
C          21.75452711721821    1.25216140052494    4.64264219638818
C          21.54590600935521    0.47206626546296    3.48728282493658
N          21.37158862862711   -0.20580575548630    2.57760479805193
C          20.89695214405367    0.88898984960457    5.70244573393009
N          20.17394152432480    0.55899888709280    6.52979360583560
H           6.13377938554024    1.29032851673261   -6.26844363147988
H           2.92083745623213   -1.39157320210916   -7.09912462339644
H           2.77559974424835   -1.99454733710244   -4.69567655268524
H           6.95208458615576    1.57065759026753   -3.97712562921314
H           3.59088647086373   -1.74973681394581   -2.37655257620119
H           6.50781932740623   -0.66717397379696    1.88100670104923
H           7.14179761498136   -0.51740814342747    4.03363979592679
H          12.05286397279522    0.26291158815504    4.35352988799513
H          12.97527770391719    0.73919842291805    2.33045034124497
H          12.02162422868702    1.35171151546415   -0.50931172699402
H          14.78850440521241    1.47915840100306    0.85009248903752
H          12.98120236547840    3.05604779549522   -2.21550715124953
H          13.09491501109943    1.33293767100142   -2.54969164550288
H          14.28115196473587    2.44429446983357   -3.23720220205151
H          15.98840375816475    3.43697669472115   -1.86787470946406
H          16.45256260307260    1.74054546299041   -2.02431242558157
H          16.42337482944211    3.15754797106556    0.56332002114454
H          18.46127749104000    1.72512197261651   -1.00754245246756
H          18.62997614634576    3.23890608278796    1.67170584912623
H          23.27249131320102    1.39813036821937   -0.30917854370677
H          24.58670536040984    2.76228083169286    1.86251730710008
H          26.05308516304961    4.53201628626755    6.60820515514820
H          21.49569747134923    3.51977677217326    9.61920584354277
H          24.88740924056464    5.63504442333579   11.11327592150919
H          26.04332703189974    5.36591542518386    8.93316386675327
H          21.47901296360071    2.67192918286638    7.32203110117075
