107
 SCF done       -206.045990827570          0.000613879238
C           5.96521377418915   -5.88740612582306   -5.69702203126573
C           5.06727997938552   -6.24439798348367   -6.66440562511127
F           4.97607505103794   -7.53445409782210   -7.04013765792873
C           4.22608154517652   -5.31466260124995   -7.28904664567364
C           4.30408446415908   -4.00038819886063   -6.91927906171666
C           5.21113370208357   -3.57753153396296   -5.92697783857483
C           6.05899577089484   -4.53848527094025   -5.30466040860954
C           6.98218038454238   -4.13743216327492   -4.30891165433102
C           7.04919240944901   -2.82042278649135   -3.94726362404460
C           6.18778929444196   -1.86746521390209   -4.56291480386921
C           5.29483187401378   -2.22319927820553   -5.53048674969658
C           6.42859018614810   -0.54129365390606   -3.96104592848614
O           5.90297243323640    0.51247233497002   -4.25052006151495
C           7.41585393167231   -0.77339750115188   -2.88047192876589
C           7.90169613562959   -2.11890269167858   -2.98419799548669
C           9.06600429522215   -2.62737657445064   -2.45234211023533
C          10.02462428717169   -1.86732703746588   -1.75534922020426
N          10.86107598009822   -1.29296374410049   -1.21635613502450
C           9.49821320182349   -3.95466580198046   -2.63623942849619
N           9.89195393063993   -5.02982799007696   -2.73078393210687
C           7.62322331554060    0.22130945298113   -1.94529580284140
C           8.15104663269282    0.10527908040346   -0.66776571889914
C           8.34004709749562    1.18638524130931    0.17910935228632
C           8.81579172803065    1.14894683473871    1.50371765104640
C           8.89223450465482    2.37805399375541    2.10307543853018
C           8.48960554468183    3.43441055388459    1.26929570658604
S           8.01115331195522    2.83414809074973   -0.29668098417187
C           8.44580244811423    4.79582382783517    1.56818914439820
C           8.75730464628703    5.43582647570182    2.77613198281777
C           8.58599902696886    6.79555460794201    2.73426475635906
C           8.15848545003023    7.29211137577179    1.48891290799654
S           7.95144902197696    5.96264937394987    0.37116265776311
C           7.81887296816323    8.62352590071343    1.26379928367915
C           7.44125022335892    9.30523096695753    0.11914460087008
S           6.56950549823584   10.80437603985848    0.34778003036156
C           6.31942173946524   11.06488356045330   -1.35975476215505
C           6.91274100249456    9.99818225066232   -2.09766026997508
C           7.59087355368734    9.05354889902077   -1.27703675978393
C           8.38265536809520    8.06610247827863   -1.87280238803407
C           8.39229849860717    7.93971785220829   -3.23900929368695
F           9.15808001799966    7.00212349919675   -3.81197741025031
C           7.60089030400637    8.77633998120272   -4.03960105791431
F           7.56811856499395    8.59198830527985   -5.36748276526085
C           6.87644389662696    9.80087333920739   -3.48365924628743
C           5.64483379478075   12.21425024502776   -1.74021082331572
C           5.55404431042894   12.76718319625194   -3.01070437642023
C           4.79764883750809   13.86746454164568   -3.37605699540081
C           3.85169952041241   14.59071930271408   -2.65242621607738
C           3.15077807744598   15.69787478087092   -3.16234133123604
C           2.25107927029148   16.25234035955363   -2.28924864170278
C           2.20301374603956   15.60266866836477   -1.04744228766876
S           3.32333677761102   14.26771128128584   -1.01770729659359
C           1.41527597711391   15.92900453226493    0.05608177436107
C           0.47650497325092   16.96920326030729    0.15354833465474
C          -0.13196562510682   17.04527113517616    1.37758363551421
C           0.30257078436239   16.06980012157184    2.29437317240529
S           1.50948342072735   15.04484973376597    1.55759819874081
C          -0.11747448802681   15.93790235625699    3.60837145355176
C           0.32287652887341   14.95176919262125    4.47801104518675
C          -0.00502729669743   14.81790981569999    5.81402494250513
C           0.13082796322430   13.50263029889229    6.47842782385633
O           0.70811848210608   12.52521877759643    6.05014396817954
C          -0.62815019479206   13.62359775709330    7.74082272104970
C          -0.90639194276906   12.66932017930471    8.67469736831426
C          -1.69788850558485   13.01058197545379    9.79578916756957
C          -2.18822416798534   14.34202408094953    9.92327125204147
C          -2.98624979833730   14.67321109923566   11.03476746062785
C          -3.27093987051608   13.71383674956421   11.96648719825559
C          -2.79620339633979   12.40025445587818   11.86117846830309
C          -2.02003326401097   12.06207435122357   10.78712727560579
F          -4.03546202576922   14.02855612678679   13.02944108176548
C          -1.87285660326653   15.31458329177294    8.94404026861678
C          -1.10102361035907   14.96108574628171    7.87248602531180
C          -0.60347849061210   15.73877363751113    6.73631038673059
C          -0.54560438290479   17.11458506527417    6.69037825280861
C           0.20138796043843   17.84548210305610    5.74659292440320
N           0.82991164467380   18.49243002105292    5.03467138869399
C          -1.13400008350802   17.95692751691366    7.65226495335674
N          -1.61458265892860   18.69649607279434    8.38855674257140
H           6.59960750758378   -6.63059873813141   -5.23970939948665
H           3.53704016428061   -5.65453678339407   -8.04590050947443
H           3.66636668289293   -3.26469494846773   -7.38603594272612
H           7.60616961317611   -4.88926861298687   -3.85260737424668
H           4.65673457306225   -1.48165359847218   -5.98733334448300
H           7.23069204586384    1.19279276125091   -2.23380245604400
H           8.40234278858617   -0.86701898472033   -0.27000235247283
H           9.09176286959426    0.22323095220486    1.97583066483982
H           9.22921564255802    2.53854592641107    3.11117269204634
H           9.08698004408633    4.89617528926162    3.64491231786915
H           8.76679781577427    7.45050753683334    3.56811714507692
H           7.75882380517538    9.21204577883610    2.17348113605678
H           9.00657881514687    7.41396730238506   -1.28810737806644
H           6.27960116342453   10.41889425823353   -4.13081545654638
H           5.19710006424263   12.76526107003898   -0.92360146892959
H           6.17036885996503   12.34963021108331   -3.79191907550098
H           4.93177135124380   14.22167781246536   -4.39111959379307
H           3.32420307043064   16.06362421793209   -4.15900346475109
H           1.63542646277722   17.10249911090244   -2.51897690242086
H           0.26752979070056   17.63322412426396   -0.66538431826586
H          -0.86886826156774   17.78058443926291    1.64632664559287
H          -0.85698600055464   16.65223701710555    3.94176960327560
H           0.91858131268745   14.14249593654250    4.06654235855023
H          -0.53085830600159   11.66341295635726    8.56052757074069
H          -3.36633340654425   15.67632817996624   11.14977787370004
H          -3.05283563027078   11.68576444403778   12.62719216655476
H          -1.64281569617940   11.05566482277589   10.68392575239413
H          -2.26125980147898   16.31338161964723    9.06483958173775
