96
 SCF done       -188.980076457089          0.000540441069
C          21.51371840414691   -7.36865310003901   -0.42630604063358
C          22.14121927461253   -8.57820969117171   -0.31531163477011
F          23.28914397962916   -8.79170664087264   -0.98090638214138
C          21.63299574210068   -9.61986264395749    0.47406340083268
C          20.46776569417559   -9.42162863537755    1.16014628266405
C          19.77973869614778   -8.19255565873258    1.08383644569794
C          20.31122694766034   -7.14616375060768    0.27303364797268
C          19.63557089181264   -5.90807927080494    0.17450227247812
C          18.46953211856680   -5.72173453431452    0.86821688724437
C          17.95310875240073   -6.76537300605521    1.69183896250580
C          18.58149440692634   -7.97406267102066    1.79741620155787
C          16.72695207929056   -6.30210180579280    2.36335478513728
O          15.98459596943355   -6.92417089927566    3.08289004035596
C          16.62750472913405   -4.84556442479132    2.01905366209680
C          17.55735409276477   -4.58517134037846    0.92912527382966
C          17.45211249870943   -3.59121657988998    0.00180324090028
C          16.38102926464260   -2.67083348431559   -0.04281355343672
N          15.49696034241309   -1.95449969028451   -0.19031447475525
C          18.34685096541766   -3.43230970008745   -1.07798637900633
N          19.05774744660306   -3.25859403787882   -1.96145578492738
C          15.90044101688128   -4.02836722020478    2.80248579199411
C          15.93971444919707   -2.57935020847738    2.87911364739312
N          16.97899312020657   -1.93009067027772    2.35187765681907
C          16.99133953923334   -0.61562538047828    2.49074255055038
C          15.98311600619755    0.07802504147893    3.13576589878248
C          14.93697783392111   -0.68655684344989    3.67326615493915
N          14.94284452886284   -2.01487070558377    3.54427982038841
C          13.81533977949952   -0.15854048426698    4.41118056130747
C          13.61405607113252    1.12922215715799    4.73520189356206
N          12.53661071047154    1.53105320325661    5.47222227703665
C          12.27680043553175    2.78857932597243    5.90260157232683
S          13.30609316688125    4.11298429858663    5.47506126401197
C          12.30770373470657    5.17406690974167    6.42242973295876
N          12.67335221553319    6.52303301305553    6.46106101012148
O          11.98803722457072    7.28003643396972    7.12148248755741
O          13.66509467991187    6.83406002986750    5.82151839261615
C          11.25734191025719    4.54251399628701    7.02597808708981
C          11.20925684844439    3.16090687134107    6.74046156289443
C          10.22333685389220    2.24664305657232    7.22465195041920
C           9.30064660861831    2.52053847850404    8.18522990147920
C           8.35136179990705    1.58004359898357    8.62430823946020
C           7.45504914776003    1.79340715711231    9.63980439061857
C           6.48850893658127    0.87602609990991   10.12365037860208
C           5.74894970578655    1.34253171426025   11.16595447633312
C           6.08934984218847    2.65573594723607   11.56687704080776
S           7.37176232366806    3.28554549859252   10.56521227940062
C           5.53936871291710    3.38575976397216   12.60578215922328
C           4.52306505458636    2.97812474975368   13.49841386493677
C           4.20732294007847    3.91068211896701   14.44069164779935
C           4.95738486004685    5.10762001635102   14.33984741498238
S           6.07337981368932    5.00379255888882   12.99942021002018
C           4.90792108403153    6.24297314164041   15.12749920259706
C           4.06021594733693    6.37099901335787   16.22521809252953
C           3.99078857749867    7.47747804948293   17.04716390680044
C           3.14171895064923    7.62978092487953   18.20160156820776
C           2.24175639022869    6.71497244300847   18.70059108313271
C           1.44890128010159    6.92774449118609   19.84541000977674
N           0.77625040064695    7.03420524121029   20.77052763584437
C           1.97768430659914    5.44333385119898   18.15658126234865
N           1.70456953963561    4.39329456042751   17.77536998065330
C           3.40348985098562    8.94811118001396   18.77556465693690
C           4.38992102315885    9.59580117803501   17.99290141339567
C           4.79518586127927    8.70543745706932   16.88436854082800
O           5.62153024012747    8.95461665679802   16.02931559543536
C           4.85398094038744   10.85571240966232   18.27816854480436
C           4.31925573346415   11.51121521333437   19.39294722984421
C           3.33437938943064   10.85724093490106   20.16892339357668
C           2.86415946102014    9.58165033589339   19.87864346363817
S           2.81018104959124   11.84408971705457   21.50007578109255
C           3.90760309788880   13.10427156057065   21.00202082385198
C           4.62942538227160   12.80431598214961   19.89660931338275
Br          3.99638806783680   14.69703655610470   21.98917281842549
H          21.93232497476693   -6.59133216886984   -1.04618003382685
H          22.17222152359326  -10.55254698095570    0.52260955606916
H          20.05657965585730  -10.20824080818276    1.77465708515651
H          20.06228855177103   -5.13026489004137   -0.43893245477276
H          18.16931827413515   -8.75299368363846    2.42129029112696
H          15.24589594072473   -4.49714155231126    3.52808621961037
H          17.84491604862894   -0.10749627491547    2.06072073499758
H          16.01196780615341    1.15075091889164    3.21831753424791
H          13.10761738759440   -0.91246291491713    4.72807922294497
H          14.28888187450364    1.92106082790463    4.44614111008087
H          11.89196425019727    0.80510125238153    5.76210198244907
H          10.54921677933248    5.07039736014357    7.63731927098943
H          10.21665754650739    1.25261784673817    6.79480858684136
H           9.28659699911130    3.48947142632593    8.66346325359404
H           8.32585868319236    0.61270163190840    8.13901321682823
H           6.37512522408141   -0.09953648654970    9.68501035328273
H           4.97450920128025    0.78185826831325   11.65688030063673
H           4.05444178907721    2.01315768134746   13.42834605537900
H           3.45885218475864    3.76252451882615   15.19817357251283
H           5.56506413891758    7.06498146595550   14.88423720457774
H           3.41361084151714    5.53734517983340   16.45491937684863
H           5.60656441729957   11.32172002804090   17.66162087059571
H           2.11219250712327    9.12794165315491   20.50208185802051
H           5.35135465803631   13.46547584211646   19.45310934443094
