107
 SCF done       -210.373921789679          0.000762449396
C           3.78828534022820   -7.80687905441883   -2.41229884891440
C           2.74624184886703   -8.63471953192110   -2.09838604632284
F           2.15106563631366   -9.34791245024514   -3.07114251972500
C           2.26504681925124   -8.77433648591663   -0.78965074685276
C           2.85613995348038   -8.05621902400737    0.21247821334012
C           3.93319735352514   -7.18695440730899   -0.05502679252185
C           4.41092286304788   -7.06248290452587   -1.39208185815918
C           5.49961168377921   -6.20683393368840   -1.68359999329733
C           6.08491909751463   -5.49798454279363   -0.67039537907085
C           5.58713113470758   -5.60819830365869    0.66013530636002
C           4.54546624299135   -6.43286121111624    0.97133614202556
C           6.35578947988734   -4.70902271143318    1.54018078237616
O           6.24983402277140   -4.56486840519973    2.73744168392349
C           7.27201487484274   -3.96124983441074    0.63653798790423
C           7.22363429230905   -4.58079499963449   -0.66465860595739
C           8.18443343129785   -4.51695071572444   -1.64505686542083
C           9.40625271970842   -3.83273609968951   -1.51530653480916
N          10.43451652728563   -3.32422277089633   -1.45130306062650
C           8.10562812145004   -5.21278087975822   -2.86821941787899
N           8.08825905093222   -5.74143175508189   -3.88683542390479
C           7.94087018035981   -2.87715993356691    1.13698415474639
C           8.58908339061412   -1.82410716679010    0.47214075806479
S           9.86734597492413   -0.98411850823705    1.29292713680664
C          10.27512091162822   -0.03653633160153   -0.08858135188213
C           9.35510339604498   -0.26286040977864   -1.13084756010815
C           8.39852378426673   -1.27412704856132   -0.81022570301961
C           7.35419977090389   -1.56131429393471   -1.70606083640914
C           7.30286872226707   -0.89605866381048   -2.89950503709577
F           6.31077666056393   -1.15492859885799   -3.76173193336407
C           8.25548854140133    0.09209298977838   -3.22392344945406
F           8.14644132422966    0.74449772839725   -4.39092361699267
C           9.25483982288194    0.42551805232903   -2.35229792848717
C          11.44462132558960    0.76389905568879   -0.03940254132109
C          12.19677108193196    1.12052278006127   -1.10865885686426
C          13.38225748397285    1.92826739660520   -1.03069900826698
C          13.54219683509216    2.85190474121056   -0.00348827051546
C          14.65888225714133    3.66065400394902    0.08044951797434
C          15.70044965574901    3.59923973030127   -0.84372781141951
C          15.57033427506474    2.66606677290680   -1.92615990086174
C          14.41756983320190    1.83238677443228   -2.01378927413255
C          14.38191913344022    0.90225312315257   -3.07341047308257
C          15.40354980912319    0.85492747734150   -3.98503307161098
C          16.47173525355844    1.74472856801870   -3.82420470374723
N          16.55190072824339    2.59831298915062   -2.84087802653357
C          16.82460781264717    4.45520512511824   -0.63182645205290
C          17.98661775311919    4.48562577083005   -1.33501623660365
C          19.07136312087409    5.32865174573589   -1.02436234193937
S          19.02718627266552    6.48082642505388    0.26648350097056
C          20.66098541303241    6.99823010669789    0.00028898755105
C          21.22976540725904    6.29294723046537   -1.08023183052368
C          20.32920702680673    5.35400164864555   -1.66201665518658
C          20.73904100635369    4.56829452551954   -2.75293340084001
C          22.00679950558486    4.72570912943377   -3.23815073768939
F          22.41897787726458    3.99045947329996   -4.28194476611284
C          22.90007243887790    5.65503457981676   -2.66184471676841
F          24.13246148155235    5.77590326916249   -3.17553833979904
C          22.52818499318835    6.43082715150067   -1.59933485284733
C          21.28503564203677    7.93726117681186    0.83231083448084
C          20.65716439444575    8.63893988324020    1.82375535919538
C          21.27402972153849    9.56180282492492    2.68821039237081
C          22.58875049556521    9.70911359374014    3.04632272686602
C          23.01377885701690   11.01015687901175    3.63082286288353
O          22.28783085597737   11.91051174031909    3.99014079575538
C          24.48802364414736   10.98047059515286    3.63225583045733
C          25.36881422773234   11.96553061120652    3.97287394513809
C          26.75581191818303   11.71293185655861    3.87731872134195
C          27.20206728483020   10.44038221064442    3.41655160305710
C          28.58533940880884   10.19556588572892    3.31829441732969
C          29.46737977751179   11.17878356197471    3.67107460543219
C          29.04870301547450   12.43563497288133    4.12806038284113
C          27.70920422763531   12.69104601709880    4.22626974185411
F          30.78952319861881   10.94578242945898    3.58128889893626
C          26.26498763706740    9.43742850518107    3.07320902676025
C          24.92729850663688    9.69989389389970    3.19056959474823
C          23.75163082202192    8.86005382996543    2.95673522156473
C          23.78088324023993    7.48668069026471    2.91526099614430
C          22.64027363946021    6.66317781347501    2.92726309149056
N          21.74929961289285    5.93905086903040    2.95686306182589
C          24.96547052432734    6.72361337026115    2.92959685642130
N          25.89407299632884    6.04829935712673    2.91784403537075
H           4.13477711215132   -7.72693908622110   -3.43075440073338
H           1.44040673273387   -9.44348510065360   -0.60196101239797
H           2.50282467478298   -8.14647675233226    1.22859544113295
H           5.83560687880058   -6.12722904225965   -2.70524442251552
H           4.19135322572680   -6.50911672303812    1.98838533606324
H           7.94651637189603   -2.82453479423779    2.22260075844746
H           6.57576045617440   -2.26238839581247   -1.45469739622081
H           9.91990253212020    1.23606874532209   -2.59854017566313
H          11.79383430591371    1.00253984228583    0.95659662607437
H          11.92152587355203    0.73406447812076   -2.07745157475434
H          12.76013844119105    2.96474168475393    0.73173363407010
H          14.73104566458357    4.36679522950097    0.89517020476586
H          13.55624511161939    0.21369536645361   -3.16564052602082
H          15.39432782804284    0.15166399788848   -4.80252278882771
H          17.29776874848727    1.75200470779448   -4.52420482485892
H          16.73069701493205    5.12766013898863    0.21470408259443
H          18.09870233031283    3.81307172930631   -2.17129374972375
H          20.07565535010882    3.85180434683492   -3.20815141683205
H          23.23307071496157    7.13141110523197   -1.18289947807779
H          22.33197855254985    8.12811926392626    0.63727438011385
H          19.58344915098511    8.53517850882449    1.91530329080893
H          20.62453116319807   10.32436234598933    3.10949320440301
H          25.01245888838215   12.92592298018810    4.31400927472288
H          28.94363688520693    9.23788848483154    2.97433039244031
H          29.79081198871184   13.17227924790957    4.39204245639571
H          27.36225484867212   13.65178801007019    4.57578123795596
H          26.63351474990079    8.48751972114530    2.72006605357191
