90
 SCF done       -171.724457476818          0.000405563251
C          -6.19810792688032   -4.34242668432342   -3.79931221257177
C          -5.42899493195069   -3.16405715061043   -3.88209992690984
C          -4.01017061501197   -3.22590731508951   -3.93045364029450
C          -3.52032034230483   -4.47095117868186   -4.43349960599604
C          -4.27525073579547   -5.62004384750898   -4.30914725780314
C          -5.59826508759810   -5.57068957825305   -3.86785857982121
C          -2.43816122636241   -4.52017029537718   -5.43086353910071
O          -1.99282679989660   -5.56088370450606   -5.87554813198565
N          -0.92207874663209   -2.67318576147237   -3.05373564654278
C           0.37755562643884   -2.12854862817020   -2.68950417017236
C          -1.81053617010757   -1.77903151273797   -3.60476253526093
O          -1.39780380244755   -0.67049623155138   -3.89238395625705
C          -3.28022898703975   -2.04334508151915   -3.65157978286937
C          -3.99189771456554   -0.87443206250153   -3.40188134175029
C          -5.35287558524896   -0.76248867836163   -3.66124475859927
C          -6.04798948344960   -1.89159287223901   -4.02097949100046
N          -7.28159715765443   -1.85188422888741   -4.65848180056335
C          -7.52769278706997   -2.54945502245719   -5.81060888869034
S          -9.19833870175136   -2.71799788629271   -6.26740736475155
C          -8.73622222651007   -3.72801089627991   -7.59891006966201
N          -9.74239160751983   -4.20393960273051   -8.44065659608394
O          -9.41442619957544   -4.91507487806786   -9.37319010018920
O         -10.88541641726302   -3.86900773525798   -8.17377102525024
C          -7.38310697147086   -3.92336218445839   -7.66507379331678
C          -6.66012714152083   -3.23436459506902   -6.67265327162214
C          -5.19932913025369   -3.30791534928200   -6.67769524343912
C          -4.34908475692872   -2.27216859879689   -6.59032476586022
C          -2.90874045632626   -2.29657345307188   -6.55354528228933
C          -2.04222822775390   -3.20567290392825   -6.02786400150732
C          -0.62011742201904   -3.00302999094419   -6.13531378052831
C           0.33738138844689   -3.72266301754231   -5.50820644511613
C           0.18311832246754   -4.66850449107774   -4.43708191564674
S          -0.97924590610868   -4.36014006994945   -3.12340089036157
C           0.96533140197964   -5.77958335080147   -4.30381443826980
C           1.89364607264026   -6.30492780726137   -5.24933728899249
C           2.54683783687202   -7.41291782440683   -4.83449946531857
C           2.16424475084798   -7.86627781703057   -3.53437875034005
S           0.89893470228496   -6.81697442325937   -2.88933417397969
C           2.58510607762577   -8.93361659314428   -2.80875045056501
N           3.64307706042710   -9.76371399902135   -3.10721464673523
C           4.84549803479005   -9.42115151305101   -3.63470442034159
S           5.35948625623692   -7.76611706454461   -3.75661369018073
C           6.93604306676308   -8.30636098316694   -4.25565961697262
N           7.87537038333003   -7.32614724500171   -4.56523639395543
O           8.98349860905259   -7.68665526392663   -4.92309380843821
O           7.51048890353034   -6.16454406860649   -4.45181217182064
C           7.05243165443584   -9.67017927460670   -4.30244081301036
C           5.85939245349716  -10.33267776270066   -3.96626072986655
C           5.74906543605720  -11.77104165757931   -3.95998451360970
C           4.62397137636441  -12.48788670618041   -4.12049634641864
C           4.53568658865554  -13.93513194508788   -4.08953634734882
C           3.36890693721024  -14.55183553989091   -4.58170526869283
C           3.21717115517208  -15.91562522497472   -4.57826024057920
C           4.23096948721694  -16.73059194033205   -4.06581480475274
C           5.40539484509836  -16.13665529749115   -3.55591791382464
C           5.53778634215407  -14.74609240756486   -3.57687374940945
C           6.41057989254550  -16.99827037416646   -3.03041490848731
C           6.25028118472468  -18.34798022936226   -3.01724549407780
C           5.03734487289796  -18.98884199545417   -3.54349293780293
O           4.81057394415367  -20.17748937886036   -3.56987472291347
N           4.10910089642900  -18.08837646239306   -4.03818057744687
C           7.25824658027591  -19.18433517120860   -2.48721170380762
N           8.09256193743939  -19.83480959485611   -2.04713602243009
H          -7.26460260452867   -4.25691172246673   -3.65562171903926
H          -3.84384325673981   -6.54613132212111   -4.65983865099471
H          -6.16205865768749   -6.47786461619374   -3.71967806538204
H           1.02153394071174   -2.01684094737240   -3.56481724770883
H           0.84147421382569   -2.80472975156392   -1.97518264629852
H           0.23474392418407   -1.14789860722081   -2.23915584415672
H          -3.43797772095339    0.01151592004057   -3.13311980041706
H          -5.82535986452039    0.20799430551567   -3.66322986979784
H          -7.93573345193999   -1.11989795524088   -4.41846875595536
H          -6.92375375817305   -4.51764527838982   -8.43466021709842
H          -4.80551198441040   -4.30054478955171   -6.85665631533852
H          -4.76355119244706   -1.27059600498484   -6.55447089544297
H          -2.45265955832500   -1.39075364888631   -6.93949398143851
H          -0.30149249756917   -2.24193084881069   -6.83511145170374
H           1.36395703686020   -3.56350627622017   -5.81744145584547
H           2.03092929302661   -5.84394834813281   -6.21054234117946
H           3.25456354973325   -7.95158395699109   -5.43781782603889
H           2.04679753145175   -9.19620158940354   -1.90877838305556
H           3.61481175971696  -10.69098053833195   -2.69780271056198
H           7.96248128013286  -10.16347251182588   -4.59228806258215
H           6.69582912679738  -12.28266146144179   -3.85637297174930
H           3.69497564865565  -11.98467236509944   -4.35613770555502
H           2.57866226922697  -13.93201012883268   -4.97951855815251
H           2.31675579072357  -16.36882679664273   -4.96581225525526
H           6.43827152847180  -14.31443579732977   -3.16838180019769
H           7.31662232557788  -16.55930441687792   -2.63515650725135
H           3.26201451728068  -18.50559614106015   -4.40798774040065
