98
 SCF done       -191.574393316650          0.000674929078
C         -10.90569528118550   -7.44522394882634   -1.46450324380595
C         -11.62289407616861   -7.22439069946343   -0.29747442042022
C         -11.58449405250086   -5.99634280822402    0.34714749655614
C         -10.83397803273510   -4.94718646388491   -0.16274229368167
C         -10.11432937182337   -5.15704264400404   -1.32654789371157
C         -10.14157478310088   -6.41026264243275   -1.97979033679744
C          -9.27557431002167   -6.35391862672995   -3.15027185871287
C          -9.12885855094348   -7.34285717373518   -4.08540006209762
C          -9.82730036505154   -8.56983987362852   -4.05917974984749
N         -10.36077596916869   -9.58444988257455   -4.10923330011311
C          -8.29906819639139   -7.27447441132554   -5.22323625381903
N          -7.63925778158598   -7.27473924420552   -6.16356312853653
C          -8.60188466389961   -5.05853036847567   -3.10874644368098
C          -9.27390325071122   -4.25800969829339   -2.09721934060381
C          -9.30974373897853   -2.88675632050288   -2.05003387522184
C          -8.71416996985412   -2.06714879856807   -3.02668994904059
N          -8.27978538332713   -1.39149807035224   -3.84822187952310
C         -10.02710147152728   -2.14565040973015   -1.08895312219550
N         -10.57276261806424   -1.48421386061198   -0.32667917328956
C          -7.50178698810638   -4.74212316707351   -3.85793383389260
N          -6.57689229640389   -3.78036613707357   -3.61756038689612
C          -6.22556684029487   -3.20824662627556   -2.42762728830629
S          -6.56184819318129   -3.97480605263706   -0.90706085054004
C          -5.60007338153781   -2.77208556484927   -0.11085917507822
N          -5.51115017426902   -2.85537902805034    1.28710122552446
O          -4.82554425518736   -2.03339319736915    1.86048574056596
O          -6.13849814383415   -3.75672669894279    1.81428755072291
C          -5.06001057837410   -1.84656809176790   -0.95676613198576
C          -5.41302837603525   -2.06957004868725   -2.30658586526585
C          -5.06084753577033   -1.23504036287163   -3.40997948096673
C          -4.15887014605573   -0.21874609387711   -3.34892772447490
C          -3.81050330987647    0.58121348092694   -4.45092450292899
C          -2.81195500606952    1.52098428949635   -4.42219698031368
C          -2.30745482511156    2.27003843628393   -5.51566535371026
C          -1.22029864534469    3.03203866267099   -5.21932009021027
C          -0.81428868687859    2.94446490090644   -3.86760399423993
S          -1.88700817252295    1.88916339494054   -2.97395971563074
C           0.29760755187598    3.50437810969571   -3.27593675723709
C           1.33176353587344    4.24851019623537   -3.89246998398022
C           2.38041829231574    4.52938043574764   -3.07449293105225
C           2.22447427382526    4.03927592892520   -1.74972089127297
S           0.66386220487587    3.23792415024600   -1.58310633145871
C           3.09006844024611    4.04261461457275   -0.69603004181569
N           4.36918192863180    4.50889440968663   -0.74137926600261
C           5.33340376764032    4.24267821379954    0.17450321335721
S           6.59138383744738    5.42569933107475    0.38866506826887
C           7.21911217479382    4.50690711100661    1.72268444380035
N           8.36194643769316    5.00416750124422    2.36556783089072
O           8.80448946324420    4.37185996629708    3.30388228051813
O           8.81941800724741    6.04468095931828    1.92569182873962
C           6.51114141178693    3.36910227941035    1.97654749405173
C           5.43896740661004    3.16263681966477    1.07647613744978
C           4.74106382962317    1.91477837365828    1.06675341820843
C           4.03809262452739    1.39360085857192    0.02461296969427
C           3.39947839675676    0.14338481831900    0.08566776480249
C           2.59746067715003   -0.44270262126900   -0.86092055200149
C           1.78373554867181   -1.61560398405465   -0.54488150837650
C           2.01130963561188   -2.53924444129372    0.43832052712481
C           3.11418317435314   -2.54706162320769    1.32020829571021
N           3.98948575514020   -2.62913494712002    2.05860634907603
C           1.19677840007764   -3.67268005961321    0.65406025321727
N           0.58220307408177   -4.61691993173790    0.87147476272963
C           0.71584942506565   -1.67234721091486   -1.52901618251413
C           0.98166973822397   -0.71574972850952   -2.53252939969265
C           0.13274620494265   -0.60522172595183   -3.62254884562937
C          -0.98593782705663   -1.42175238075227   -3.68586558663276
C          -1.26758202104392   -2.32863175158793   -2.67568513225210
C          -0.41628866921689   -2.46897573459006   -1.59102247546914
C           2.20645326932106    0.00499432227453   -2.19161957389962
C           2.85932770305748    0.83565111508021   -3.06851360430100
C           2.35983076484301    1.19256920590332   -4.34055024060819
N           2.03028395008404    1.57902312597592   -5.37109004133226
C           4.11936879001554    1.45464239780390   -2.94208676896102
N           5.12566708146010    2.00984154239711   -2.98018619898193
H         -10.94457859867002   -8.40806608394883   -1.94641635910062
H         -12.21567033027406   -8.02592340942416    0.11571620761480
H         -12.14290635935327   -5.85331162128588    1.25928172654628
H         -10.80300319624138   -3.99959930392175    0.34998572027413
H          -7.27493794714343   -5.34419167726037   -4.72704024193019
H          -6.01011579925952   -3.49655629900888   -4.40792479885280
H          -4.45708881186792   -1.03070054548127   -0.60378807285257
H          -5.57420652688268   -1.41197238663827   -4.34498330531266
H          -3.63241509814475   -0.02160664069049   -2.42485086629891
H          -4.32488195148512    0.42289186005756   -5.38927242871582
H          -2.75271785506604    2.19877671674376   -6.49209430659577
H          -0.69121566062434    3.63867022318588   -5.93090279533811
H           1.28691118498764    4.52147521408013   -4.93047094096205
H           3.26228851041773    5.05700267443391   -3.39135111240695
H           2.78291623812740    3.61465469637064    0.24582792252249
H           4.62327411761557    5.11872387782817   -1.50880044055797
H           6.78232657069562    2.68178025962479    2.75797900682256
H           4.87320101003994    1.31018917013427    1.95509056208227
H           3.95231686046834    1.95819280175721   -0.88358234634138
H           3.49035905672019   -0.37572724698170    1.03060056728086
H           0.31860892865295    0.10136753274826   -4.41351144908718
H          -1.65100730263481   -1.33924536226310   -4.53176106957649
H          -2.15717372851531   -2.93729755859726   -2.73537191060853
H          -0.64191414928334   -3.18105268787666   -0.81462390626939
