104
 SCF done       -183.797985035606          0.000392036068
C           9.63861359457977   -6.21383631556936    1.31714633250293
F           9.52534523099279   -5.30751783606796    2.29152628857420
C          10.89826105437482   -6.63259680573257    0.90102736270199
F          11.99638857852661   -6.13821736117848    1.47414945157909
C          11.00006441788304   -7.57262734321825   -0.11938536306041
F          12.20259156907837   -7.98861618134119   -0.52455394538782
C           9.84953284954400   -8.07963576473965   -0.71137692150949
F           9.98942883998213   -9.00074384625819   -1.67183421569957
C           8.57193656848502   -7.67844140411837   -0.31477077204178
C           8.50120689204346   -6.73609178709279    0.71345471127904
F           7.30809878370012   -6.28920885211082    1.12441669068389
C           7.35934183454926   -8.21720018787969   -0.95009793228730
C           6.28585532821199   -8.63885136583659   -0.15908208296436
C           5.16059083248000   -9.13555308499282   -0.77262571924339
C           5.08486008378123   -9.21257102447888   -2.17296589644475
C           6.14640588836067   -8.79286303975360   -2.95898298064690
C           7.28035014826227   -8.30082684587980   -2.34084704121791
C           3.79705313927693   -9.76860783872900   -2.53270279271169
C           3.07903460360863  -10.03472441308748   -1.35577751826998
C           3.89062626914669   -9.65288284807527   -0.13943343936949
C           3.19092883136077   -8.55682485723272    0.68589381680730
C           2.88501337905461   -7.30640109901622   -0.12937951229554
C           4.16848741474304  -10.87510160238880    0.75565866450277
C           4.86441155167118  -12.00847668010104    0.01160105594212
C           1.81701339984933  -10.57500801418545   -1.41660213261506
C           1.24383897620659  -10.87431306835010   -2.66153415792603
C           1.97100902607073  -10.58991607210724   -3.82556096713446
C           3.23620220846623  -10.04226829067250   -3.77083541218416
C          -0.08028064601369  -11.45985307003000   -2.69794008460438
C          -0.64604133633921  -11.98849623585711   -3.79244953875346
N          -1.89959662509202  -12.55235063553480   -3.82638417362666
C          -2.48890253776094  -13.05239350430713   -4.94497183769362
S          -3.63014075761272  -14.35448074557546   -4.80529978854310
C          -3.72181983141177  -14.44317112394512   -6.53907657859338
N          -4.59700056254141  -15.37617851533391   -7.08881718097833
O          -4.66287468085809  -15.45105178983904   -8.30436852006766
O          -5.23873202427547  -16.05946570962339   -6.30319678247405
C          -2.92180909974585  -13.52627063408147   -7.17020628539304
C          -2.22461795945889  -12.69570873374371   -6.27467641122120
C          -1.43335478089752  -11.55348082895172   -6.65599555150019
C          -0.69278325871861  -11.45264308542123   -7.78606181182195
C           0.05424466130565  -10.29805150116387   -8.10126482340449
C           0.95893499287218  -10.19626230888354   -9.12410562462955
C           1.73592070611280   -9.05540948269622   -9.44991715676124
C           2.60511106586079   -9.24482809640642  -10.47953373816913
C           2.57401538403185  -10.54640081132280  -11.02722915159702
S           1.37079497319634  -11.52032528845535  -10.20512007979753
C           3.37827784760842  -11.05518264957141  -12.02869533097685
C           4.39567539154738  -10.37592294435218  -12.73833215645214
C           5.07440246725599  -11.15415788993294  -13.62469132249290
C           4.63583493783350  -12.49937488719947  -13.67995568321053
S           3.28158540782742  -12.71365317597876  -12.56545188382083
C           5.07308482418662  -13.56641014562429  -14.42040806363442
C           6.20808413118606  -13.66508166741365  -15.25820656252359
C           7.29319346426270  -12.81052533941333  -15.44426411422547
C           8.19441862344857  -13.40861022892375  -16.36423765108973
C           9.40627303710883  -12.98837703109490  -16.85928675217960
C          10.07391201839447  -13.83524391617835  -17.76263136853199
C          11.28627395570646  -13.70640186137295  -18.41792597104378
C          11.50560663851983  -14.86822829027657  -19.23015948827415
C          10.42370899424419  -15.71031137191411  -19.07307873881123
C           9.49755038555488  -15.10882134027573  -18.16056816363440
C           8.29382418336035  -15.53107884684763  -17.67167565124153
C           7.62284061357168  -14.68469300149379  -16.75796153098909
C           6.43331741764034  -14.82975675507940  -16.07980967984562
C          12.65046104201607  -15.13103619867685  -20.06810032657084
C          13.70380985992962  -14.33155941079588  -20.21373465363154
H           6.35428944293175   -8.58976535300999    0.91677599036701
H           6.09373184996855   -8.84699488002361   -4.03539068533889
H           8.10838225373766   -7.95822211744798   -2.94196666819816
H           3.83215031613012   -8.28984368288899    1.52810018557998
H           2.26138919707284   -8.96442491653501    1.08873785550429
H           3.80237707266760   -6.86025706558463   -0.50634235204434
H           2.37688145628373   -6.57222177276841    0.49116325429194
H           2.24504594676803   -7.54555708452756   -0.97599063549384
H           3.21919392178933  -11.23514250150627    1.15759471809091
H           4.78789972736348  -10.55848449096881    1.59727110904162
H           4.25689583130450  -12.34998527711044   -0.82348980739798
H           5.03153167541641  -12.84823412256571    0.68195873054282
H           5.82647088679253  -11.68156314059099   -0.37665899288433
H           1.26116084546902  -10.78282534753156   -0.51325036723146
H           1.53591335191219  -10.78990947350589   -4.79234029655089
H           3.77749821007877   -9.83113974721324   -4.68087964158489
H          -0.62206553729175  -11.47515398159380   -1.76066296548594
H          -0.12684468515893  -12.02717297529854   -4.73608208122079
H          -2.34455077252925  -12.75008456645154   -2.93951481558246
H          -2.88249111714128  -13.43424609656770   -8.24018465924019
H          -1.44795712736800  -10.71675586756749   -5.96834093723099
H          -0.61785902183322  -12.29408712268664   -8.46195322955919
H          -0.07335926629141   -9.42792007131619   -7.46942512740056
H           1.62640903567867   -8.13361014153534   -8.90604917217156
H           3.27187312243447   -8.48838593362345  -10.85304799689881
H           4.59942238104430   -9.33256324818887  -12.57565667897356
H           5.85629885184497  -10.78514640901643  -14.26087674248290
H           4.48222998187983  -14.47102198113799  -14.34153011879330
H           7.47370142387210  -11.87435925269917  -14.95313597132878
H           9.84167641876206  -12.04251660528382  -16.56880675969190
H          11.95883686630774  -12.87247328334196  -18.33441878142585
H          10.28681582046237  -16.66407182429285  -19.54925202226566
H           7.85882815466467  -16.47832623788761  -17.95851080821328
H           5.75918421102278  -15.66571476302078  -16.14108870397391
H          12.61328736145405  -16.06960615451064  -20.60745170223041
H          13.78670203044218  -13.38964861283258  -19.69912399724357
H          14.52479566462616  -14.59384101386780  -20.85829448495448
