102
 SCF done       -175.994160672869          0.000360512895
C          -4.63148898834432    0.52105104044322    0.72348376351747
C          -3.48194091007009    0.44847849575969    1.46829118857979
C          -3.13979706985165    1.36554362054941    2.48108634102911
N          -2.81969798011124    2.08429272170579    3.31744459382623
C          -2.55592045396175   -0.61003873538723    1.36706619966722
N          -1.79835274503084   -1.47309660044891    1.36378589026591
C          -5.71874384577016    1.47282054649653    0.90963763802747
C          -6.82609248199159    1.04093833018727    0.13943987996974
C          -8.01504310916103    1.72686882103703    0.11009565216749
C          -8.11398590211588    2.89513596070687    0.87462159041613
C          -6.99966916485337    3.32045149838916    1.63542087156539
C          -5.79671494526133    2.62470447641121    1.66793812351537
S          -7.33689975075056    4.79249116628398    2.49517310354376
C          -8.94940444974258    4.81467324105679    1.83235229474948
C          -9.22290324131123    3.77501166854970    1.00904963402354
Br        -10.11942754191888    6.20742680561532    2.29024578649734
C          -6.47071524182991   -0.19787484336142   -0.58649256704138
O          -7.19716475961791   -0.83352316346538   -1.32158451771923
C          -5.04433527744669   -0.43282344551455   -0.28008468098020
C          -4.21226584465249   -1.25838928750275   -0.98878293002178
C          -4.60302867638467   -2.26763538089914   -1.89583974219904
S          -3.64133077924348   -2.50637213993888   -3.33702895054222
C          -4.77407131504821   -3.64260461812680   -3.93677639042022
C          -5.80860645116518   -3.88314381377636   -3.08352752315779
C          -6.91020770610954   -4.85063978725886   -3.35561104947778
C          -5.70479422439433   -3.12340169383042   -1.88452375227852
C          -6.55869251332655   -3.32263108474399   -0.74483509296455
C          -6.12528608539067   -3.24293092278666    0.53015722311665
C          -6.95686094627583   -3.38322572166862    1.67688581687586
C          -6.48371516646334   -3.27092176252598    2.93808506931029
C          -7.30845709612999   -3.33704471440680    4.10459929317318
C          -6.88922398495508   -3.19041401908645    5.37347246522844
C          -5.45755250941532   -2.97521579814643    5.76156330814285
C          -7.86548284797806   -3.27511941788432    6.52196589815092
N          -7.58814619807144   -4.37389115380286    7.41983062885823
C          -8.03235380675572   -5.63994586671058    7.16462431486386
C          -7.57468227292786   -6.74107806019486    7.77856147897997
C          -8.12905181359146   -8.07244226452403    7.57628345481711
C          -8.16798105677551   -9.01755747313091    8.61345679095843
C          -7.65978789466454   -8.63994679738783    9.98079542561364
C          -6.18025617415084   -9.00472958046648   10.13815791575665
C          -8.69503367792352  -10.30120689006479    8.36766338435994
C          -9.18302318857178  -10.61308448306601    7.09125538064662
C          -9.14929321361543   -9.67974842386030    6.07942166860594
C          -8.62816672755553   -8.42257825463825    6.31912965992732
C          -8.70740550124060  -11.30675430626322    9.40109869901712
C          -9.44986614735171  -12.44008506424215    9.41633218132886
C          -9.46596565639017  -13.37095780898555   10.48638247750971
C          -8.56634465007920  -13.60018480851103   11.48733820153571
C          -7.18732061135614  -13.22146365118730   11.70548581312761
C          -6.23233048038338  -12.98099354012293   10.75014155009578
C          -4.88132149159901  -12.70351497921377   11.03786139364636
N          -3.77648537647936  -12.44577139355306   11.21525604200386
C          -6.47363583445322  -13.04527493827235    9.36361238812578
N          -6.60861970117591  -13.10616102852067    8.22549426533906
C          -6.90866373159745  -13.39263529939060   13.12965518175576
C          -7.99554187340795  -14.07765867193648   13.72673940517224
C          -9.03813803173112  -14.31034896395908   12.70636641386911
O         -10.08071483818687  -14.91065943653860   12.83909738270178
C          -8.01117608338940  -14.41977748941145   15.05682607377621
C          -6.90726337735422  -14.05805210572704   15.83649001195813
C          -5.83447790711853  -13.35922481712633   15.23401640850716
C          -5.81457016754044  -13.02018969877950   13.88651790866190
S          -4.58124811066893  -12.99842935400660   16.38255680604083
C          -5.50001441429670  -13.78632112370655   17.63795797973537
C          -6.68525806558971  -14.29113373693603   17.22184961832736
Br         -4.80851756011504  -13.86313120876086   19.38004482194086
H          -8.84386460998272    1.37597169115887   -0.48442679139481
H          -4.97063267781140    2.98975120188533    2.25566868745569
H         -10.16650394131002    3.63371345844581    0.51443984967675
H          -3.14549787514905   -1.06597035275758   -0.93897165785977
H          -4.61094556431815   -4.08244947665901   -4.90181976656929
H          -6.78350465272964   -5.30718086160783   -4.33355454540388
H          -7.87127322833357   -4.33895790030087   -3.32803550862841
H          -6.92059655803267   -5.63459465316484   -2.59950859843603
H          -7.58404185141646   -3.59595311559673   -0.95001782945357
H          -5.07583625773778   -3.05052133580958    0.71943606473604
H          -8.01237940064236   -3.55519209389397    1.50965500323527
H          -5.42388063061886   -3.10818360129305    3.07828433080278
H          -8.36425339909074   -3.49782092774081    3.92242153207954
H          -4.96707421327900   -2.27361533666171    5.09101385130365
H          -4.90475791770524   -3.91481951558681    5.72000556912597
H          -5.38824738375039   -2.58198591642459    6.77375718008748
H          -8.88464459308491   -3.39395082785933    6.14683382270719
H          -7.82033891741105   -2.34684869888501    7.10496383669467
H          -6.71196426910944   -4.31398678796647    7.91886553965367
H          -8.87324707160426   -5.68564067499442    6.48658734415990
H          -6.75862716133976   -6.63603471327499    8.47832654647079
H          -8.24687643383711   -9.13304655395594   10.75715038656037
H          -7.78526296064793   -7.56655292806836   10.12893907984436
H          -6.02056709866220  -10.06834228193232    9.97375592849443
H          -5.82721040705277   -8.75040411442835   11.13550795294723
H          -5.57541884576820   -8.47012170247820    9.40987179892481
H          -9.55283210821710  -11.60501528165180    6.88987787960152
H          -9.51430338597064   -9.93443340787630    5.09542591383583
H          -8.57737309817673   -7.70400742222893    5.51497772362879
H          -8.09879715137656  -11.11171149327220   10.27172834472203
H         -10.16514575763967  -12.62787559240302    8.62857323605150
H         -10.37772093137588  -13.95433253110513   10.58554853172053
H          -8.84806041065566  -14.94977586404500   15.48372103577789
H          -4.97780679471427  -12.48189969054478   13.47301455861350
H          -7.37650279942469  -14.80656946662855   17.86329761300163
