114
 SCF done       -194.000273065359          0.000864987006
C          -4.84207996469499    0.87748977457303    3.75666465313175
C          -3.68756607869266    0.36284944560598    3.21683663112010
C          -3.00491307010766   -0.75794970007370    3.73187003929218
N          -2.40244770465781   -1.66620685166628    4.09398870332000
C          -3.00280968951147    0.86402616217529    2.09203053936114
N          -2.38391223223522    1.20198155996914    1.18348903611651
C          -5.52234339383489    0.35185198750729    4.93425359095743
C          -6.65091186396594    1.16326347738311    5.20851261576282
C          -7.50133686682459    0.92283253177194    6.25925494417706
C          -7.22810739098911   -0.17608625264430    7.08101673329561
C          -6.09969962729069   -0.98206361152630    6.80002239982849
C          -5.23801810761720   -0.73667422550504    5.73850860472043
S          -5.94887412504776   -2.28886187531038    7.93604398708520
C          -7.38470995972376   -1.74195679451668    8.76051594619462
C          -7.94878663939502   -0.63792077174623    8.21614690057798
Br         -8.00380911976233   -2.68106048074736   10.26169397439341
C          -6.72695625294810    2.24073349433158    4.20412917745432
O          -7.56756470518504    3.12057124975032    4.15710197282485
C          -5.59770729458043    2.02577539571409    3.29176142526274
C          -5.30702236363499    2.74844127604561    2.16398319031778
C          -5.94805038078595    3.84881955185823    1.57448469676747
S          -7.35361370005369    4.66936000796143    2.22020516224221
C          -7.42781284423313    5.70651543038503    0.85798297648688
C          -8.49247480791420    6.74636277952448    0.81335164336118
C          -9.85117581685677    6.13149297787369    0.46255298822918
C          -6.42673330363566    5.44994057233539   -0.06933751513690
C          -5.55587974975551    4.41907928478345    0.36055330512510
C          -4.40166440759851    3.94522775839869   -0.46334346122468
C          -4.87597258212379    3.00012770969540   -1.57087285492770
C          -6.25346957016729    6.09219458467572   -1.35047547665107
C          -7.21679282468249    6.54518758124542   -2.17283476854672
C          -6.89801422831842    7.00879650722456   -3.48396780631483
N          -5.70177836345361    7.07906167353948   -3.98541909734489
C          -5.72980467324563    7.42170545613393   -5.27804878316531
C          -6.98193522827758    7.62816301253395   -5.81626485684993
S          -8.19759184942788    7.41548944552915   -4.63251245966319
C          -6.83628771516549    8.02320147376735   -7.23312594221793
C          -5.51925489332551    7.29591858030176   -7.54261045005251
C          -4.62004100088158    7.57247686703924   -6.30017437836993
C          -4.06854254218587    9.00763142210337   -6.28741962818598
C          -3.44219384072392    9.39098100742128   -4.95113218487255
C          -3.53052105741030    6.51656647301758   -6.05907241513287
C          -2.22616755232283    6.72643471582442   -6.82288836602578
N          -5.16771128321844    7.59953331322200   -8.91518414058488
C          -6.33359966932419    8.06918971939141   -9.63046760260086
S          -7.84562648395270    7.57381228222115   -8.68136168261614
C          -4.34005776616570    6.68212735704831   -9.52807249434315
C          -3.84605238745908    6.75404178505895  -10.78895389636388
C          -3.96866807851187    7.74397641628495  -11.80699792461349
C          -3.30502390682388    7.44666347906119  -12.95267221077217
C          -2.61749853246430    6.20654246052971  -12.93338403851394
S          -2.82785649757788    5.42930914200979  -11.37643922321136
C          -1.86721717811491    5.62517121840886  -13.92792043726617
C          -1.64596156017707    6.08815967160986  -15.24858345341344
C          -0.84972385445502    5.27200097511352  -15.98333396318832
C          -0.39631186466040    4.10287924009591  -15.30211012340499
S          -1.04211834780407    4.09751047334007  -13.67357515196043
C           0.48438102651071    3.20678188780391  -15.83355697161717
C           1.09404739626467    2.04089157097904  -15.27614891040517
C           0.57848275874727    1.24911664400182  -14.24075744226774
O          -0.68739917858939    1.57144758290522  -13.87808024130283
C          -1.34904450542939    1.02820250899450  -12.75795764504604
C           1.33259327162829    0.15244247750859  -13.70739069317424
O           0.76355198958089   -0.52573625559456  -12.66613490175153
C           1.46814327239237   -1.59649381182509  -12.08671333533034
C           2.55709392058792   -0.19484940767892  -14.22736583468004
C           3.06615176737959    0.52881345038628  -15.31343370031286
C           2.33507385018003    1.64209297793971  -15.84524230536348
N           2.96601202937604    2.21553214096269  -16.86396414256953
S           4.34504587296837    1.41794465424964  -17.13145530861948
N           4.20912284010902    0.31485873045794  -15.96124286730628
H          -8.35207365277969    1.56060359033143    6.44123594191558
H          -4.39321229727736   -1.38221707862794    5.56740346406833
H          -8.83673943126180   -0.16779184195249    8.59751724756063
H          -4.44930982072823    2.40356338213498    1.60402561590504
H          -8.22650053602514    7.51820724070828    0.08947906368200
H          -8.57047699433543    7.21188707270191    1.79881688136667
H          -9.81212189696121    5.62317838030656   -0.49832353491756
H         -10.61237664916862    6.90599663163338    0.41655400708536
H         -10.13648164588632    5.40570244996457    1.22007852689049
H          -3.65971102760454    3.43410026350886    0.14977840625398
H          -3.90692136978755    4.80540510018304   -0.91793062935015
H          -5.36654677336155    2.12960952540096   -1.14114928061837
H          -4.02662451232262    2.66229887515005   -2.15834292986858
H          -5.57939128378995    3.50663453210061   -2.22830714359653
H          -5.24146752870552    6.14279472285839   -1.72786636545326
H          -8.26558583600474    6.50070610382967   -1.92780472394460
H          -6.74045550016422    9.11376825849034   -7.30321764471833
H          -5.75210209640007    6.21600743426371   -7.48364562547590
H          -3.34097359289331    9.11106428016939   -7.09299664578616
H          -4.88387834798111    9.70417154233361   -6.49299567544564
H          -2.55322152643875    8.80312805861639   -4.74462912016726
H          -4.15003429077908    9.23125565832276   -4.14143849223725
H          -3.16086998974223   10.44159782110617   -4.96285214761377
H          -3.32140406609300    6.50348685859357   -4.98815358309560
H          -3.94458131458182    5.53660525818004   -6.31173466933586
H          -1.66283271352206    7.56386628038079   -6.42141741871946
H          -2.40376183336737    6.91077988116708   -7.87884783473185
H          -1.60867477912492    5.83565983600455   -6.73213268845803
H          -6.39775385716109    7.63659639074185  -10.62727444570561
H          -6.34794423911768    9.16157877575275   -9.69006694537722
H          -4.04455690893888    5.83903120421927   -8.91800260740420
H          -4.51525128020414    8.65584993213971  -11.64464992772145
H          -3.27960533228300    8.08597813411769  -13.81728338863908
H          -2.08668004027042    6.99856400754278  -15.61479485642513
H          -0.56469015324958    5.45734213767655  -17.00421692069130
H           0.87511830300347    3.46252543318455  -16.81141921559550
H          -0.78463656024832    1.18375713310730  -11.83739572029197
H          -1.55486737070913   -0.03542377707019  -12.88830429734681
H          -2.28755039972316    1.57982684588021  -12.69945067738287
H           1.63897690773741   -2.40287656969104  -12.80643820572153
H           0.82946030254475   -1.95928532895576  -11.28256137278444
H           2.42563982983076   -1.26945211495488  -11.67014309946487
H           3.13561258769077   -1.01545567017495  -13.84146607060856
