102
 SCF done       -204.912680446857          0.000512725299
C          -4.85511652457121   -0.66643811810109    1.30028071877506
C          -3.71370097316747   -1.40802868246492    1.45956896277913
C          -3.55930151039731   -2.42834052279606    2.42160367284444
N          -3.37231659717941   -3.26407607768546    3.18563904686066
C          -2.54929658283850   -1.27247745192525    0.67430266316215
N          -1.57352905961765   -1.22868144684507    0.07090429991932
C          -6.09787113653515   -0.83974500553193    2.03934134968692
C          -7.07583655348486    0.03522474253765    1.50419445129292
C          -8.35895743514647    0.09743045185845    1.99138155421731
C          -8.69595284668510   -0.74837481181098    3.05302210557075
C          -7.71088280620350   -1.61631502902050    3.58443153807109
C          -6.41243857273714   -1.67607807687546    3.09514824608771
S          -8.33689146981764   -2.56666555684137    4.89652152224804
C          -9.89249401286328   -1.79997357512640    4.71493726568642
C          -9.94244449965856   -0.87803833887035    3.72384722184186
Br        -11.30049525999861   -2.28583261298443    5.85270146380953
C          -6.48896673929645    0.82730479954575    0.40839503659120
O          -7.00922862197030    1.74780782219259   -0.17733275859494
C          -5.07442719380184    0.36058615768954    0.29949951850947
C          -4.13300405625807    0.95044236715376   -0.48533299713771
C          -4.43312561071202    1.77081330586501   -1.60317812781373
O          -3.52207931686024    2.69268476251589   -2.02295731505950
C          -5.48376788659382    1.76814219924888   -2.49960017648286
C          -6.72511611443566    1.07112985427903   -2.87507855462457
O          -7.27811821597306    0.11896168646129   -2.39542838509912
N          -7.13326482068967    1.74084098163709   -4.02516025218011
C          -6.27744425395691    2.74502247149582   -4.46743184656299
O          -6.44692583908304    3.41340223116606   -5.45538788230049
C          -5.19485020519432    2.74201063502568   -3.48166620915875
C          -3.97193289149739    3.30356293230750   -3.14507123060811
C          -3.17387347774769    4.32088622478248   -3.73598981031578
C          -3.50299295395577    4.95954295594572   -4.87915825236360
C          -2.69183148055348    6.03057145081535   -5.41519976033827
C          -2.16197833305878    6.96138727745074   -4.56402629797324
S          -1.28759677134340    8.21997901970030   -5.32740647792222
C          -1.56126959537425    7.47036110601578   -6.87077667087930
C          -2.33906188088543    6.30535099279805   -6.79031842020640
C          -2.59564070754601    5.57063607797758   -7.97279603229338
C          -3.46937632635536    4.34981928873673   -7.88112849349827
C          -4.94569343319476    4.73859596604189   -7.99928638369840
C          -2.08816464256871    6.00276278402289   -9.19023907728186
C          -2.36924569160051    5.23446219258187  -10.45558172369525
C          -1.33918888203117    4.12438003667996  -10.68254718375197
C          -1.29668834886496    7.17434806956680   -9.26059301374772
C          -0.67856586374574    7.82908071065994  -10.38810138478953
C          -0.06817319271618    8.99193013356123  -10.03248366465822
S          -0.15260987356800    9.36142276984254   -8.35580817974049
C          -1.06952659387171    7.91287436968038   -8.08731247212824
C          -0.59632979480319    7.36076120867305  -11.76785000667104
C          -0.80362017179290    8.14709384508196  -12.81879120314855
C          -0.61055022960240    7.70895807526775  -14.24457379358613
C           0.73366500863856    8.25442694281652  -14.75165995660542
O           1.10082462050217    9.38669244032739  -14.78215347565450
O           1.51556239556677    7.21746115793245  -15.15858905391359
C           0.83417364256215    6.04307711650699  -15.00216039754517
C          -0.43786953184950    6.24262583296899  -14.46080699952229
C          -1.29164671695223    5.18199429144959  -14.22445915166558
C          -0.80845764110930    3.93481536639744  -14.57264329583708
C           0.45313256632376    3.73821459753424  -15.13369270854849
C           1.31317139668395    4.79592436557289  -15.36038511007307
C           0.53831896997893    2.30181638562970  -15.54904303152448
C          -0.78241766408708    1.74115603705580  -14.97085427697452
O          -1.15042850905933    0.60829325388993  -14.99560682215473
O          -1.50667513964643    2.75365954368208  -14.45353648201054
C           0.45325046880088    2.22642987569311  -17.03968027389344
S           0.92454287305394    0.85589274621954  -17.99570425881492
C           0.44366237547178    1.57759622120223  -19.47622403743754
C          -0.07811047365798    2.82776569866799  -19.26051294251813
C          -0.07297712651825    3.17318431782380  -17.86770619470471
O          -0.58382078617353    4.41103898433880  -17.67452901093798
C          -0.90738546680023    4.85749889430352  -18.92092496998985
N          -1.45482642878058    6.16221710972681  -18.99262894952263
O          -1.76509946075020    6.56809633177900  -20.09369349013296
O          -1.56807605568157    6.77581318275977  -17.95121562410459
C          -0.63550385570915    3.96316002997622  -19.91813160141213
H          -9.08106722286570    0.77314668427900    1.56117729400392
H          -5.69633680384745   -2.34860298784942    3.53715728841166
H         -10.82111494720353   -0.31147527078063    3.47527939213616
H          -3.07866527468225    0.81162911563922   -0.28392172881833
H          -7.98019431040149    1.49751623432458   -4.51925674588864
H          -2.24803863125739    4.53877602756445   -3.22252973760175
H          -4.42513684332749    4.70238775971501   -5.37926009372574
H          -2.30377074814878    7.00232474411142   -3.50144980915368
H          -3.28991673853658    3.85716250002239   -6.92450627107611
H          -3.22302104761561    3.63003106855546   -8.65895666988489
H          -5.18665556405214    5.55325054522127   -7.32103736862792
H          -5.58375301832066    3.89412364431463   -7.75513562120460
H          -5.17526272817539    5.07089578476302   -9.00926905738702
H          -2.35674227994394    5.92690670377393  -11.29731138623586
H          -3.36477529887628    4.79492088894165  -10.41703694589510
H          -0.33033121486807    4.52991582561899  -10.71983381487413
H          -1.54282236308092    3.60466113039773  -11.61620509765199
H          -1.36927939481821    3.39960677177340   -9.87248338924289
H           0.47674544974698    9.64925013655731  -10.68187860269471
H          -0.29881207313439    6.33230954273409  -11.91469461818128
H          -1.09262379974905    9.17974855920934  -12.69303848894769
H          -1.40830844558341    8.12100991080273  -14.87160508880620
H          -2.27989943486942    5.31506530696806  -13.81875915448475
H           2.28517911190659    4.66753902816509  -15.80583720910800
H           1.39300603735845    1.73894653235243  -15.17024776535669
H           0.57062651186398    1.04620946865560  -20.39663694994103
H          -0.81071253103616    4.11152697145761  -20.96355685192137
