90
 SCF done       -188.903973246238          0.000363633764
C          -2.98918983839860   -0.02705389387040   -4.81428299241496
C          -3.25550201603704   -1.36116564696308   -4.59932651822459
C          -2.41907223300812   -2.41975279536646   -5.00223249856272
N          -1.79185288306575   -3.34398842109734   -5.27354951633760
C          -4.38706214686660   -1.89490021370636   -3.96235221915179
N          -5.27186219175396   -2.45886194047546   -3.48759560778895
C          -1.87460998501437    0.48800196158650   -5.60543494075921
C          -1.96540491056740    1.90069009035863   -5.64991630257095
C          -1.07806606897819    2.67800890591999   -6.35089847368322
C          -0.04909698768331    2.03000515434864   -7.04430217297198
C           0.03631171122727    0.61956167249769   -6.99068999822337
C          -0.86273853122155   -0.16732059465469   -6.27966522704358
S           1.37707181246125    0.02512250034948   -7.92351644336700
C           1.79537876538948    1.65792566659795   -8.36930482868776
C           0.97730179063426    2.60105644106237   -7.84552162494000
Br          3.26976056172452    1.96360486454423   -9.48792743768074
C          -3.13644157453293    2.33757831456204   -4.85906876429022
O          -3.50453026720598    3.48344608583574   -4.69082703622147
C          -3.74818899106929    1.09777275542782   -4.34186122385384
C          -4.84105753509932    1.05127625055611   -3.50112169362320
C          -5.53033071711029    2.15439736621463   -3.00952418422646
C          -6.61625874027360    2.02167986165574   -2.16373572752179
C          -7.38457194422711    3.05647706269874   -1.57950846060882
C          -8.40383166750510    2.61384274000540   -0.78736489319686
C          -8.47983660270334    1.20681016876209   -0.71069968318206
S          -7.22853739340679    0.46580584055179   -1.67435220355611
C          -9.36794270582580    0.41026582456215   -0.00908523923387
C         -10.49393799202793    0.76417159120757    0.76571328155282
C         -11.17037108460953   -0.29854574414316    1.28801356311129
C         -10.60232300548735   -1.55466219300529    0.96389149653871
S          -9.16888512642951   -1.32049150772303   -0.04283067019885
C         -11.01025215178944   -2.81049762629233    1.31951295592916
N         -10.28273285743624   -3.89166190227662    0.94824736694833
C         -10.53647323948139   -5.20309566869821    1.13522607011431
S         -12.03092003912150   -5.77157572825607    1.80362016196968
C         -11.47560338975287   -7.40522388010342    1.59425551354787
N         -12.33033905826046   -8.43005330255730    1.99661543071685
O         -11.94966637819594   -9.57908677615295    1.84954986814103
O         -13.40522207192926   -8.09227838574971    2.46920281215842
C         -10.22020015373058   -7.49470983021657    1.05031502705816
C          -9.65047361953478   -6.23942432510832    0.78143015200991
C          -8.33533460939353   -5.97925490685035    0.26331493148430
C          -7.47896824278671   -6.91591327916661   -0.18288941406318
N          -6.20088175604765   -6.70966427086556   -0.64026375348789
C          -5.46345326319499   -5.58279401124764   -0.78127257067376
S          -6.05214844155969   -3.97805230770494   -0.51216595772380
C          -4.49742380610384   -3.32906660720650   -0.92725525328917
N          -4.36037111053801   -1.94654109771249   -0.87774991548975
O          -3.32187145846662   -1.45281932698831   -1.28326499504199
O          -5.30473166603971   -1.31606087230561   -0.42304950145772
C          -3.57751864923925   -4.29050706221535   -1.23954866908121
C          -4.10022935809642   -5.59501082011004   -1.15432871522783
C          -3.35697780928195   -6.80012621267997   -1.36089365345859
C          -2.00900463796272   -6.87958577651619   -1.43200272395417
C          -1.28219851658128   -8.10088103797003   -1.56985943822647
C           0.13456619604584   -8.07073395890848   -1.51427847715737
C           0.93141744325554   -9.26850539604894   -1.63022146896257
N           2.27993533652016   -9.19643754613375   -1.55002186037637
C           2.83578720600480   -8.03210398205504   -1.36554274146210
C           2.04152599121846   -6.83568506487156   -1.25282822777868
N           0.73637215230698   -6.88415378813390   -1.32862127901692
C           2.67826439710981   -5.58706398123497   -1.04459204267125
N           3.22623067761405   -4.59637895288780   -0.86933725618648
C           4.24877682171847   -7.94206220077685   -1.26165957348315
N           5.38396054208233   -7.82868209962322   -1.16501677837847
C           0.34507312074529  -10.51421537308130   -1.81250531968782
C          -1.04171830252180  -10.56802124241525   -1.86407670732497
C          -1.86120070007474   -9.37807892284579   -1.73690776411551
N          -3.16410236560442   -9.67951793863211   -1.79936843289524
S          -3.32783250054009  -11.26615104168064   -2.00263746471076
N          -1.78654128961697  -11.67111288357692   -2.01734652433925
H          -1.17540824603056    3.75222113133368   -6.36957023114570
H          -0.75690191566680   -1.23943868372099   -6.27087423005787
H           1.09000719512007    3.65601555637333   -8.01712156002721
H          -5.18997763617265    0.07778931701072   -3.17782397705345
H          -5.20654430356184    3.14699789824964   -3.28664791585561
H          -7.15658677843507    4.09198903366314   -1.75982182708470
H          -9.08501170940957    3.25458723765441   -0.25626653079527
H         -10.77825190944991    1.79116563236690    0.90784857195690
H         -12.05297497391740   -0.22023989560987    1.89690114179837
H         -11.90263772510538   -2.98072662470419    1.90154887383348
H          -9.42781131374019   -3.67430120532402    0.44335904185367
H          -9.74917980886683   -8.44375964033390    0.87513371395478
H          -8.01880700842116   -4.94951577296312    0.26791231974018
H          -7.76556714258152   -7.95637909688632   -0.20383832282562
H          -5.70217352308609   -7.55061381984348   -0.90656396345106
H          -2.57043756296010   -4.05267279970588   -1.52825994599424
H          -3.90570706483124   -7.72902284295195   -1.43524979341165
H          -1.39358802882751   -5.99676132663748   -1.34686961619826
H           0.95102951234415  -11.39930287862640   -1.90072131768637
