104
 SCF done       -191.497140935530          0.000589844917
C          -3.42810879614658    2.11610760916438   -0.93269655479551
C          -3.25030196210523    0.79842805335226   -1.31185128842649
C          -2.01487671547915    0.13580361886629   -1.30332596831080
N          -1.03984429307367   -0.47634808916279   -1.30515275083227
C          -4.24864787862824   -0.08580069083802   -1.74779522432011
N          -4.97832752767899   -0.91331684219392   -2.07743026146487
C          -2.36347504210660    2.99691355268952   -0.45466291437198
C          -2.91643290238307    4.27463695305334   -0.20559777640319
C          -2.17102107685196    5.32418124903744    0.26602057019443
C          -0.81444253933588    5.09429533517716    0.52614545092294
C          -0.27917509063569    3.80881542133630    0.29931257772161
C          -1.03031181493601    2.75160309128167   -0.20117421347039
S           1.39941924904927    3.72541769228751    0.74315468905761
C           1.36470731856326    5.40631905843955    1.20672974251585
C           0.15689665533129    5.99685934637665    1.04295603955684
Br          2.91492006229341    6.21678997960748    1.89474856699569
C          -4.37147307817199    4.23189276837094   -0.48768037565670
O          -5.15481532140397    5.15270007353831   -0.34917804370087
C          -4.64786133135763    2.85501295480168   -0.91882828285645
C          -5.91469827709470    2.33576714652463   -1.15510582192644
C          -7.10512210928184    3.02699166323014   -1.07295199869887
C          -8.33525216431209    2.37501018126227   -1.10764956425846
C          -9.61169667045389    2.94344409491687   -0.98159363258873
C         -10.63018471136889    2.02327296700226   -0.92825705593450
C         -10.18968170304470    0.69613277597165   -1.01280498997513
S          -8.45597105437122    0.63414226413147   -1.20339064162490
C         -10.93365516571119   -0.47590330219990   -0.87788634713030
C         -12.28250560513508   -0.61159440039024   -0.52162523165468
C         -12.66686581680979   -1.91344204323474   -0.33951114846570
C         -11.64838892642486   -2.86461733733220   -0.55695374195492
S         -10.17832505349419   -2.03969286054274   -1.02716219835786
C         -11.87984372073980   -4.22887115333458   -0.44665410838657
C         -11.14187735961228   -5.37538328897473   -0.74800405736643
S         -12.27118056180622   -6.75306190594498   -0.92669309358961
C         -11.25733747157238   -8.14190547064539   -0.58276218695662
C         -11.65136210748824   -9.26253151750632    0.07788666642191
S         -10.40094765723400  -10.44336241202426    0.12358719987756
C          -9.32849592324679   -9.40714128591612   -0.73422330100690
C          -9.92135697329447   -8.22683641853320   -1.05118165718230
S          -9.17132834340978   -6.91131396464757   -1.94367885629630
C          -9.77285809188451   -5.52735371646498   -0.97513901979530
C          -8.79444000460566   -4.65564249433409   -0.48465136678221
C          -7.45072369934167   -4.77811183813819   -0.73770078441855
C          -6.45294613646427   -3.90331121253097   -0.30574703616627
S          -6.70835335635988   -2.37820925547401    0.52777694622282
C          -5.01475257041342   -1.97813576011190    0.61670735379418
C          -4.26845231064331   -3.00191697824423    0.01476376311346
C          -5.08137547004128   -4.04603944578812   -0.49366055142329
O          -4.34258192504793   -4.99719530956218   -1.08545388163346
C          -3.05610093814783   -4.56776269776357   -0.98002627905078
N          -2.03559539409752   -5.38943769938666   -1.50793589425297
O          -0.89150249515828   -5.00944335586387   -1.33709315065426
O          -2.36194439168108   -6.40988212943783   -2.07650426145828
C          -2.94229281817980   -3.36377853420951   -0.33127187106280
C          -4.56161569953224   -0.76203211627517    1.20179441364153
C          -3.22573858425343   -0.60168876339809    1.53858952911356
C          -2.76579013222822    0.61103353529167    2.07686167989314
C          -1.50915082623196    1.02786010795475    2.51289929709597
C          -0.20384620101083    0.32142522969347    2.65716420672163
C           0.01572308368521   -0.06779327820437    4.14054591105116
N           1.43787281992984   -0.10081621610158    4.41782631835334
C           0.00277915314641   -0.90066146725177    1.75363261848754
N           1.41210541447240   -1.27499354315420    1.74147634907439
C          -1.66428283538697    2.39401553406400    2.95837079317040
C          -0.77927324203499    3.24255364836611    3.52100293517273
C          -1.18537172034792    4.59977284741839    3.94700011171857
C          -2.59853446534846    4.96526751679799    3.65336706848715
C          -3.47289802754180    4.10676725203490    3.09778401806673
C          -3.05841334356426    2.79666228163276    2.75312779871253
C          -3.72168247024621    1.70610047470590    2.23267523959679
C          -5.08253466161683    1.50738189584330    1.90070468469926
C          -5.49102476856494    0.30792250371922    1.42171492437755
H          -2.61828304595394    6.28982947220911    0.44146919514211
H          -0.57190999211463    1.79210803957733   -0.36695657385987
H          -0.04237503250710    7.02856528514822    1.27080600103949
H          -5.98228966611026    1.27632714606528   -1.37068512263013
H          -7.09713488770982    4.09640188206985   -0.92284228661002
H          -9.75154117360086    4.00793203565670   -0.91912459977789
H         -11.66958543268830    2.27889596696301   -0.82560434532376
H         -12.93048818688187    0.23478379168688   -0.38471927781554
H         -13.65944006763316   -2.21101793255654   -0.05069377693135
H         -12.91270301459956   -4.44792146128579   -0.19156377747075
H         -12.60587445870868   -9.46593076964174    0.51817755206351
H          -8.33690629319623   -9.73143448531859   -0.97475725220828
H          -9.11830355473507   -3.86408521425913    0.17493833677967
H          -7.09454422419060   -5.61230811630555   -1.32887175197179
H          -2.02268525424589   -2.83658362634187   -0.18069284822088
H          -2.55094811603687   -1.42986530610935    1.42085435707170
H           0.59039482828191    1.03994784201047    2.41905714193999
H          -0.50156379344787   -1.02392848507080    4.32794713196189
H          -0.43979952750369    0.68547632325228    4.79309654517564
H           1.88028304661115   -0.72754881634561    3.74823835093372
H           1.60815660293988   -0.45798864621845    5.35192517774453
H          -0.38040447576368   -0.67963741103405    0.74581834479932
H          -0.54835847320257   -1.75558716671411    2.15603487753657
H           1.95569045328391   -0.56098230694355    1.26611794567415
H           1.53389814093605   -2.14026495517162    1.22587315642586
H           0.24743346924569    2.95469133333135    3.70190122375936
H          -0.51015950551051    5.33764667929188    3.49373450842840
H          -1.00294083415599    4.69087820373032    5.02704881005249
H          -2.89833081875313    5.96622843145688    3.92388630777945
H          -4.49282776083876    4.40263634745201    2.90216271637974
H          -5.78402138089304    2.31674062502132    2.03870186157383
H          -6.52569199988765    0.13570341038308    1.16481199053706
