112
 SCF done       -207.649806248093          0.000584892100
C          -2.16229931643460   -1.04377383832854  -16.69324635763995
C          -2.14439486720834   -1.87789696667238  -15.60629561724693
C          -1.65011880146461   -3.19912808039725  -15.63447170954847
N          -1.26160881401126   -4.27866908938259  -15.59255387206162
C          -2.55662784017710   -1.53660209087614  -14.30068101663677
N          -2.84672393288610   -1.34299223845058  -13.20646992377079
C          -1.66627060633347   -1.37603969681456  -18.02453986387572
C          -1.68987240751803   -0.20948775384783  -18.82829613202133
C          -1.27092382730100   -0.20177417907784  -20.13578389712309
C          -0.82360419310427   -1.40835390588138  -20.68467339419177
C          -0.81069302418320   -2.57054329281447  -19.87720458407196
C          -1.22224093245753   -2.57558138626413  -18.55057127964678
S          -0.22424205189791   -3.95172799899496  -20.75439328373124
C          -0.00829441380896   -2.96248608002301  -22.17380291575304
C          -0.35622648748826   -1.66515719676124  -22.00270748851676
Br          0.65591902313959   -3.73636822725588  -23.74751007176870
C          -2.20864465113531    0.91943394252311  -18.03107721156970
O          -2.16590047883207    2.09386193669550  -18.32086635543153
C          -2.64798880050827    0.32473668891503  -16.74132894020456
C          -3.34485137021247    0.97605172888633  -15.77275986823140
C          -3.99397858449237    2.23977104111880  -15.91215644415323
N          -4.14388020323717    2.94861374659188  -14.79901024477200
N          -4.67997129623648    4.11437943396624  -14.76898811756663
C          -5.15324039500981    4.77504177455722  -15.84051284722412
C          -5.13460335243979    4.08006947627871  -17.08827393858230
C          -4.55914079297710    2.75952943921113  -17.12017975042694
N          -4.78257649950188    2.26724283150848  -18.31791298531576
O          -5.42950613697774    3.21850405232754  -18.99609281325068
N          -5.65039145699737    4.31947769200688  -18.27077246752610
C          -5.66662467371193    6.05183404098006  -15.60692333164578
C          -5.69156785983974    6.53264593627074  -14.30924745611785
C          -6.17426189410140    7.78032236308647  -13.85270441974961
C          -6.09528472410693    7.94282024340477  -12.49894984812101
C          -5.54770458367391    6.82169781048981  -11.84550722168504
S          -5.11344880594678    5.55387453787248  -13.00169963454682
C          -5.36056359542870    6.60628845372790  -10.49340045176685
C          -5.68132770060480    7.43617862417019   -9.39084097409862
C          -5.39527634587864    6.87850704617538   -8.18572569107051
C          -4.82667153645650    5.57278123650062   -8.25573680077294
S          -4.66073897132078    5.11029193710795   -9.94597116792818
C          -4.53253290138872    4.79160617989017   -7.17437520057484
C          -3.99816519791766    3.46568563345498   -7.13123452953967
C          -4.12240958225040    2.73930776670143   -5.92761543761266
C          -3.67836701656009    1.44466370636480   -5.86391396546363
C          -3.06888562997205    0.84243729952358   -6.98211486756094
C          -2.90192369644654    1.55738509633903   -8.16140874247616
C          -3.36634478049676    2.85212602697819   -8.22755382449724
C          -2.71121477279313   -0.51279340174659   -6.63992315318410
C          -3.10347529749127   -0.75771712408249   -5.31095755765018
C          -3.74746995269962    0.47051468174545   -4.71033529290651
C          -2.95682169359281    0.98193102208608   -3.49164451720582
C          -1.49907609099522    1.28504403933758   -3.81681780730105
C          -5.20674005885021    0.19223856582792   -4.30177877742459
C          -6.05610578214665   -0.33133539334759   -5.45376339441130
C          -2.89950087667132   -1.99044287998625   -4.74431778701940
C          -2.28199808559640   -3.00731645490258   -5.49320898531634
C          -1.89131393983597   -2.74281248269305   -6.81502520010129
C          -2.10499394160855   -1.51073805969631   -7.39342769934059
C          -2.12491373236975   -4.30689763457434   -4.89657413131930
C          -1.34538240010097   -5.31265705024755   -5.35610376089997
C          -1.21679530554915   -6.58673003841784   -4.74119994210230
C          -2.08832291425198   -7.28394428576276   -3.96036712956770
C          -3.49931907103117   -7.14534875275475   -3.66169251465608
C          -4.46422299320531   -6.57545961150973   -4.45162186773664
C          -5.83606756539300   -6.55335446569756   -4.12719806508129
N          -6.95989048804867   -6.48620946590286   -3.90228170288836
C          -4.22830397341022   -6.00126046465078   -5.71666567941234
N          -4.11656850249661   -5.54671752398386   -6.76439035891306
C          -3.77290197464281   -7.95392305916784   -2.47574210209010
C          -2.63205527733606   -8.74326066298325   -2.18653048620567
C          -1.55999442553213   -8.41286228161397   -3.14555775963004
O          -0.46331645529890   -8.91613386296804   -3.23278768482311
C          -2.60119422781710   -9.64699707289332   -1.15238594991033
C          -3.74682445248863   -9.77075356061915   -0.35946956399403
C          -4.87483944690760   -8.96494974201026   -0.64501284045569
C          -4.90851083750656   -8.05531281718154   -1.69458492512748
S          -6.17637859757446   -9.27086900294145    0.46476154842052
C          -5.20382591448088  -10.46575925444941    1.28168013533573
C          -3.96688156209800  -10.62635639354438    0.75483584017940
Br         -5.91354751214518  -11.38550529059579    2.75415306975764
H          -1.29678076254408    0.70444804190321  -20.72001041298527
H          -1.19308422154784   -3.48725213071762  -17.97760407251414
H          -0.28748055535458   -0.91851176311421  -22.77261197834611
H          -3.43702746880463    0.54340411720636  -14.78545685018092
H          -6.04495535514860    6.63758976485303  -16.42875605928553
H          -6.56594766337902    8.51479158694576  -14.53454638556240
H          -6.41581552103505    8.82826429005970  -11.97794005736904
H          -6.12131482231451    8.40830559310519   -9.52324440834150
H          -5.57711208602101    7.35484566622386   -7.23804847664703
H          -4.78729366660373    5.22045541360853   -6.21147331241234
H          -4.59472748965956    3.20619314734586   -5.07489897298739
H          -2.42118915798939    1.10734839057755   -9.01587016793436
H          -3.21461765226286    3.41096334583311   -9.13587316836205
H          -3.00296014560308    0.22715308971492   -2.70390042004074
H          -3.44036569999086    1.88587906268450   -3.11528819221543
H          -0.99073965762475    0.39198585960121   -4.17363124262865
H          -0.98430963124539    1.64157246420267   -2.92769363091373
H          -1.42702518165214    2.05046735349679   -4.58636771545388
H          -5.64412072390050    1.11668521324773   -3.91844349862647
H          -5.20837811981399   -0.53798387308298   -3.48990314268452
H          -6.08693096668377    0.38801673339479   -6.26913126018518
H          -7.07354067812987   -0.51050231206644   -5.11456306755810
H          -5.65361523463569   -1.26619025521092   -5.83727150265251
H          -3.20746005660369   -2.19230186678054   -3.72784965862149
H          -1.44819050316928   -3.53064149260385   -7.40227091947504
H          -1.81797844803660   -1.32887466240172   -8.41752393066032
H          -2.66141883237224   -4.45701255785650   -3.96615465635235
H          -0.69415090891402   -5.13838261774343   -6.20106302623212
H          -0.25423458466404   -7.07618281217525   -4.86535247048009
H          -1.72179471156909  -10.24200401139752   -0.96235771981538
H          -5.78940706525608   -7.46025347192894   -1.86933135209683
H          -3.23826829762446  -11.31931122653440    1.13409472903388
