112
 SCF done       -218.250191409851          0.001038955506
C          -3.27633383785809    0.04861994037984   -3.73156521054245
C          -2.29050295662081   -0.52549532385420   -2.97354338988585
C          -1.71052151045242   -1.77920043019236   -3.25791130630183
N          -1.21305980547161   -2.79749527066054   -3.43810075160105
C          -1.78379143464665    0.02500053269219   -1.77816950294389
N          -1.35364848685586    0.39784845234351   -0.78045984329749
C          -3.91138719909493   -0.53622479389191   -4.90561406184340
C          -5.01722922790334    0.27203363890482   -5.27222645863859
C          -5.81473235164232   -0.01187055145836   -6.35388713506757
C          -5.50119288289122   -1.14345156281954   -7.11422981693329
C          -4.38999717571622   -1.93948877857851   -6.74488233935325
C          -3.58681624466807   -1.65549890949808   -5.64708152219221
S          -4.17620398895378   -3.27993488279086   -7.82796840617394
C          -5.56517044846888   -2.76403382840098   -8.74745920073358
C          -6.15894815858034   -1.64355405227864   -8.27084137867146
Br         -6.10027791932121   -3.75098674254984  -10.24878615655612
C          -5.11642128604537    1.40959500456670   -4.34116802785657
O          -5.98411801941766    2.26315073347710   -4.32381141505426
C          -3.93973961075055    1.30947737665846   -3.46456362819899
C          -3.44655676288927    2.31494033622954   -2.67889605190249
C          -4.02530411977215    3.54774242703750   -2.34292800776052
S          -5.68582409148746    4.00383064178848   -2.57466637968015
C          -5.44592304309350    5.48582075900258   -1.69310688229112
C          -4.10385572306335    5.65445727702992   -1.33276598746901
C          -3.31494651979912    4.55730618618034   -1.67102412747388
S          -1.57324800816854    4.43317698521841   -1.45105213334043
C          -1.43421281396869    4.47751384561226    0.37284480656781
C          -2.10287733830101    3.27387243159973    1.00262363900980
S          -3.50780627210185    7.08171488272924   -0.47353454183013
C          -3.55747485371830    8.33015324983932   -1.81090542914115
C          -2.35939856966871    8.20009137479229   -2.72950877702866
C          -6.50280948779447    6.37246210149218   -1.41711289886510
C          -7.82395788244227    6.06500847797085   -1.59896170247741
C          -8.89622270554141    6.93990580274698   -1.35116965242169
C          -8.77773106288484    8.30722323805879   -1.25656786989829
C          -9.83911800351046    9.18214230273467   -1.04436150122703
C          -9.71069560742781   10.55551904384913   -1.16787023669472
C         -10.70150549931859   11.54672405210684   -1.03235302199288
C         -10.27600167413200   12.80965933198414   -1.35551817511082
C          -8.93228581874005   12.86149107012456   -1.76074170126818
S          -8.20015751146784   11.28689344645636   -1.67313787008021
C          -8.19647570704547   13.91850431756198   -2.29911661953536
C          -8.59490154606935   15.21542924036492   -2.65083742189119
C          -7.63877469785156   15.89000098966522   -3.36799916405532
C          -6.46607690311210   15.14671257599247   -3.61572777277168
S          -6.55111553150442   13.61946053166903   -2.79153826820627
C          -5.51545592341821   15.47980552601565   -4.57576418698824
C          -4.51795148074435   14.66669505820781   -5.09860584548254
C          -4.02017325227377   14.92620715091672   -6.42311372106282
C          -3.38580211792707   13.89325549782803   -7.19417891221640
N          -3.01889453275435   14.14178755481177   -8.45789363256096
C          -3.24530856820195   15.33038489131091   -8.97077800772299
C          -3.88325066387275   16.34903364384839   -8.20747924432625
N          -4.25212134660530   16.12067893832876   -6.96014133663159
C          -4.12587523582833   17.62492938732338   -8.77019188806976
N          -4.31611637413546   18.64742705356377   -9.25151063784422
C          -2.83728814812777   15.59585648180285  -10.30340448578245
N          -2.52801683268581   15.84889504918377  -11.37650576783730
C          -3.20408285154302   12.57496633077057   -6.68599202580629
C          -3.40406218421166   12.43349326057648   -5.28937573843067
C          -4.02393177606719   13.47016300241800   -4.50803866770827
N          -4.07627397712535   13.15884289398280   -3.22306075223799
S          -3.41410036217120   11.70599404357502   -2.99459455680917
N          -3.04386936985446   11.39736039800397   -4.53965834127388
C          -2.81014384245308   11.53262259140824   -7.54224155188468
C          -2.91119952535970   10.17437967216783   -7.35712076128133
C          -3.68486797402460    9.36991511573780   -6.45630752426465
C          -4.83905716848461    9.73212760652577   -5.79135416528436
C          -5.49198983837685    8.93907914326435   -4.83609899889582
N          -6.03467926733557    8.37861410145576   -3.98871816774094
C          -5.53455027295049   10.93560550523831   -6.00194928169260
N          -6.17740380051520   11.87776003653554   -6.14559385090614
C          -3.15273503336635    8.01006119575249   -6.50566137578331
C          -2.16433299947273    7.94493492758955   -7.51756697250658
C          -2.02917828514007    9.27985381365512   -8.14518954046880
O          -1.32559115350727    9.58013834052631   -9.08225699512613
C          -1.49283567712785    6.78887733236347   -7.82507033138979
C          -1.81614713847218    5.63522106582427   -7.10091167058206
C          -2.81747351992851    5.70558946462306   -6.10647624180287
C          -3.49707425281529    6.87696283436589   -5.79438397037405
S          -3.08068363889422    4.16047427522877   -5.35519022218265
C          -1.85322941839732    3.45475379481691   -6.37023674770724
C          -1.27595757455215    4.32549600238390   -7.22942376945678
Br         -1.45542156133863    1.62969349583965   -6.19747181313941
H          -6.65048755645500    0.62065132930144   -6.60966154732529
H          -2.74443762302962   -2.28343595442330   -5.40993485730421
H          -7.02490841690156   -1.18780581991740   -8.71540299200169
H          -2.44777970178728    2.18889497053360   -2.27485939173102
H          -1.86232992990588    5.41649239959932    0.72004204103967
H          -0.35951749087887    4.47511735874374    0.55047899008647
H          -3.17752944587339    3.29559327357414    0.82684532498603
H          -1.92972137272606    3.28422787206961    2.07648379663866
H          -1.70113433426008    2.34890072738810    0.59374569126820
H          -3.55444513138155    9.28737234600822   -1.28972406433419
H          -4.49679455771732    8.21215211738600   -2.34977368655991
H          -1.43448464092721    8.32388440341005   -2.17022356747326
H          -2.40359862914585    8.96280813864580   -3.50525550959859
H          -2.34209624873268    7.21998347443166   -3.20365860924956
H          -6.23193650234661    7.31864982730002   -0.96973318833197
H          -8.06783919173948    5.06413604387850   -1.93187182508943
H          -9.88712055861683    6.50725539881935   -1.29757477714883
H          -7.80728670861305    8.75329000398711   -1.42872436639890
H         -10.81929621756780    8.78579534589917   -0.81380774185769
H         -11.70253293925258   11.30730216742785   -0.71966398815904
H         -10.89916111934006   13.68532588378236   -1.32757908849155
H          -9.56524331620571   15.61296768782032   -2.41315824412844
H          -7.77091242648443   16.87988775794791   -3.76785272925416
H          -5.68192158132695   16.40851725698469   -5.10818746578231
H          -2.32466266377003   11.84145226380837   -8.46290474747095
H          -0.74759839814700    6.77013661211740   -8.60450726611194
H          -4.25731125989032    6.87625040146584   -5.03090222130980
H          -0.50183479743149    4.05983276286631   -7.92599896541353
