95
 SCF done       -170.187822177351          0.000645582513
C         -18.14099284501648   -7.77321582982282   -3.54467734073169
C         -19.03852316774332   -8.81543221422759   -3.50050663384982
C         -18.69281941129814  -10.16229888180892   -3.72136073227660
N         -18.47444211810212  -11.27591337831129   -3.90240433676763
C         -20.41328133394197   -8.69887533096024   -3.21678040144544
N         -21.53631531497546   -8.70357893976281   -2.97100193744400
C         -16.69602160662455   -7.92106258155191   -3.73687673918015
C         -16.10654442396075   -6.63752354814265   -3.66078670827592
C         -14.75483206048104   -6.42978799663919   -3.76476580727208
C         -13.93868391498670   -7.54747206662252   -3.97646196706499
C         -14.53522161539798   -8.82441370771143   -4.07027909669686
C         -15.90551419422599   -9.03465698277629   -3.94390844691004
S         -13.34971400172362  -10.05827408102757   -4.38641742303357
C         -12.09284733995835   -8.85158813621368   -4.40498379239897
C         -12.52924076870447   -7.59374035286659   -4.16356988475164
Br        -10.32654502754287   -9.35594135797856   -4.79023975101323
C         -17.16990200245850   -5.63338695689071   -3.46035780884960
O         -17.01411249001104   -4.42102550532250   -3.45882955992193
C         -18.42156034525329   -6.37581605185548   -3.32989542275189
C         -19.69003155807813   -5.81544273513085   -3.18916336106422
C         -20.06642700234206   -4.57121587168934   -2.69814055481225
C         -19.36948663580946   -3.70702146195802   -1.86098665450849
C         -19.80639597739357   -2.42797346920862   -1.43225262775911
C         -18.94179462069357   -1.78650477370779   -0.59019383599812
C         -17.79072298981821   -2.54551520779087   -0.30012153219708
S         -17.86742884980932   -4.09183480637421   -1.10254519345002
C         -16.61335048375608   -2.23273161195854    0.36206820851964
C         -16.17362221390299   -1.05381652013643    0.99879736015430
C         -14.87409256864805   -1.10847059466888    1.41518048888178
C         -14.21407478417662   -2.33117182427400    1.12915108748673
S         -15.34674130632857   -3.42893001189589    0.36316028884437
C         -12.88077994528821   -2.61688743105077    1.29471779714280
C         -12.24627391630868   -3.81711233714568    0.91727364141287
C         -12.79654829597436   -5.03797163514600    0.58904214544429
C         -11.86063769820847   -5.99608164446343    0.16873118069191
C         -10.52750179337312   -5.49463648166158    0.17459496324037
S         -10.48862950759163   -3.84867948449147    0.74851601467947
C          -9.45740004407432   -6.25038290668999   -0.23884460384479
C          -9.70309096337058   -7.56164286732569   -0.66492415891854
C         -11.03507369392618   -8.07025605630185   -0.63675895725410
C         -12.10664921040299   -7.31271956369027   -0.23963102893233
S         -11.08374982533999   -9.72610729949512   -1.16890748776695
C          -9.34718675698111   -9.72144645559752   -1.47562253749547
C          -8.78196468578767   -8.50935948877367   -1.14767208657499
C          -8.77608094696550  -10.88650986630679   -2.02356336707527
C          -7.51836462077154  -11.03497789669455   -2.54424598517048
C          -7.01585380367098  -12.22653457461263   -3.13391130134059
C          -5.76252465749960  -12.11808900536766   -3.64675388781203
C          -5.18968758023431  -10.83314663617775   -3.49233775158759
S          -6.30641442131232   -9.77461913123314   -2.65300263397618
C          -3.95892876907803  -10.39017765224136   -3.92064030469907
C          -2.96563514940739  -11.11623203042995   -4.62635382609813
C          -1.86306942070757  -10.38850293343030   -4.92784125132785
C          -1.90435959523155   -9.03007645047505   -4.48732512261056
S          -3.42230337830835   -8.74838308437695   -3.63928426100136
C          -0.94489570807674   -8.10406437816351   -4.74765824129685
C          -0.91258286258612   -6.70865260811515   -4.38225979202545
C          -1.63366194864513   -6.18559586873404   -3.37175690707754
C          -0.03193476097186   -5.85997348368810   -5.17519189647654
S           0.50551654403468   -6.36228487400118   -6.75600550258510
C           1.38062890398296   -4.89330842842059   -6.98932243639902
C           2.12957094263306   -4.67181507728725   -8.25668271731803
C           1.27075059659949   -4.05976852227030   -5.90047297824601
C           0.46204814874197   -4.62464870214595   -4.87944007939164
C           1.91479889979830   -2.76168962242518   -5.83488229795117
C           1.87994860701579   -1.93208235162719   -4.79838924283842
H         -14.33832410629400   -5.43723897805862   -3.69367249132122
H         -16.30826990126432  -10.03087038031890   -4.01924114481529
H         -11.88927245026068   -6.73058652210160   -4.13261679620678
H         -20.51472722515046   -6.42741163933775   -3.53597912717457
H         -21.07685597800186   -4.25621759894709   -2.93207422215150
H         -20.73198364512339   -2.00670444273931   -1.78382022013746
H         -19.09397174230929   -0.79723288024218   -0.19668625845551
H         -16.81158124548777   -0.19532238760325    1.11062757989621
H         -14.35925977315941   -0.29696650311200    1.89908554280383
H         -12.24847896177048   -1.82766968522607    1.67941896376987
H         -13.84132547187289   -5.26774426086667    0.67828826677323
H          -8.45369526382890   -5.85651622825585   -0.24274727397297
H         -13.11132674554072   -7.70489346785654   -0.24056936645919
H          -7.73146891789259   -8.30416088173493   -1.23569708787244
H          -9.42578799609260  -11.74954637955324   -2.08778005556806
H          -7.61138687573311  -13.12158164998878   -3.16559887994423
H          -5.23722982385031  -12.91810511568288   -4.13660496277011
H          -3.10440543899825  -12.14794167848022   -4.89547591109535
H          -1.01125986154779  -10.76646431923882   -5.46523730275916
H          -0.11161083914380   -8.45057759736714   -5.34698584717811
H          -2.24025863204807   -6.79579544811281   -2.72946733953303
H          -1.60821434948331   -5.13426755406135   -3.15097486734322
H           2.02892248384139   -5.53625558275463   -8.90827542703747
H           3.18906537818167   -4.51008059471715   -8.05618425847646
H           1.74660305085574   -3.79639739531589   -8.78237979867769
H           0.26969604404167   -4.12852710890655   -3.94662714896454
H           2.46210653671112   -2.47579843037032   -6.72324903625916
H           1.35460994601212   -2.16241639747175   -3.88778796371037
H           2.38472609626170   -0.98190927194450   -4.82572054724303
