97
 SCF done       -183.447368811378          0.000759326381
C          -4.08213779825005    9.18378913084131   12.24698124874837
C          -3.14534340452392    8.24535432734481   12.59435219036275
C          -2.46513338995274    8.22723327775243   13.83093976239607
N          -1.87625825873321    8.15637471714543   14.81361100220905
C          -2.71705651771532    7.16735039607728   11.79131150663385
N          -2.31294607676144    6.26771764215346   11.20241637617502
C          -4.51596605402046   10.29179033913935   13.09179211422182
C          -5.49745067106009   11.04027958409359   12.39574934773019
C          -6.10004113368351   12.15459509559673   12.92710634553267
C          -5.71474763736633   12.55310819055716   14.21105763171815
C          -4.73419199845137   11.80026792915665   14.90116944030913
C          -4.12645019352537   10.67261663794822   14.36269538985712
S          -4.40396546142952   12.46786058498126   16.47031418561401
C          -5.57107304375737   13.73112712773139   16.18323930658138
C          -6.17829371174315   13.65870623884811   14.97448098117374
Br         -5.87519049227626   15.02765685490151   17.50307627798738
C          -5.72494153227469   10.42889356123734   11.07687769763484
O          -6.50693168719970   10.81674461398371   10.22725244477170
C          -4.82021691499877    9.27342256652941   10.99804630666124
C          -4.68269804134443    8.44247405789394    9.91956709187838
C          -5.32706505779755    8.46402222481490    8.66855068100460
S          -6.56129896810732    9.57158948760856    8.12072994605435
C          -6.63291625388497    8.81162504523639    6.56911534379612
C          -5.73077539547576    7.73850795269354    6.48467374328848
C          -5.01389509330086    7.55241620934755    7.66599317909047
C          -5.52765026390908    6.92083002804844    5.35986580208678
N          -5.32673425260755    6.24055326450776    4.45713304467183
C          -7.51749148685531    9.33903842159422    5.59013326800746
C          -7.62079742320760    8.91346065963386    4.31024395474151
C          -8.48474606235397    9.53267198530254    3.35582414854460
C          -8.54807682881203    9.23945621512186    2.04520758565943
C          -7.74284866667197    8.19321896530509    1.34887020079520
C          -9.46442699722425   10.01429164200562    1.11566237243370
N         -10.66112839387150   10.52693246702257    1.72232904466056
C         -10.76100592547562   11.71982761514237    2.33026495713950
C         -11.88785705071700   12.15050635896415    2.96736503162428
C         -11.99576045740750   13.38814684782491    3.61513429970643
C         -13.15078552125982   13.84385416364963    4.20379995899608
C         -13.33237398844545   15.01447895563609    4.97342966743033
C         -14.59727386822766   15.17531231485517    5.45904957470817
C         -15.48791207812000   14.15067244705384    5.07361567611033
S         -14.67412411953077   12.96645017272329    4.09237715254976
C         -16.82875737788051   14.00385788489832    5.39552217590331
C         -17.60991472049087   14.70832147366956    6.32775291906725
C         -18.87379451963476   14.20718980986118    6.46522067899151
C         -19.15500476154367   13.08545708667188    5.65253113913680
S         -17.76783405498237   12.71676341093013    4.67100451990480
C         -20.39014316571294   12.44964226543096    5.58669919006304
C         -20.81658851386929   11.38644930802390    4.80813076389800
C         -20.13937028787461   10.45861369441353    4.02258863975653
C         -20.86343267451850    9.85685514727504    2.88286963544828
O         -22.04718896123508    9.94549650528417    2.63092206960306
C         -19.82893309738330    9.15912002933944    2.08178018107389
C         -19.94348983677598    8.53808808696620    0.87430539062689
C         -18.78743797857130    7.98248414952474    0.27550550917950
C         -17.53812419843488    8.08037260813488    0.95120752376643
C         -16.38899595967654    7.53930237286887    0.34350655009087
C         -16.47405958250562    6.92976432767756   -0.87685471626947
C         -17.70894812864549    6.83016356767440   -1.54205144190967
C         -18.84354708348585    7.34432035319611   -0.97770580217970
F         -17.76479810071993    6.22668813413642   -2.74138179669536
F         -15.36867029838783    6.42286973357397   -1.45222037605931
C         -17.45660136654810    8.71476134543451    2.21391896535599
C         -18.58656068835048    9.24570435458669    2.76943440755997
C         -18.81120982343910    9.94755374611151    4.03396854757527
C         -17.93262751179219    9.94736726418809    5.10426492863073
C         -18.31140841560849   10.35259152347954    6.39615606237618
N         -18.59636055824532   10.66000180350254    7.46614517835574
C         -16.61262571319046    9.47547655628067    5.03601775777559
N         -15.51108106569961    9.14445103563567    5.01314838158854
H          -6.84487336826515   12.70087475174614   12.37002170854826
H          -3.38482300094550   10.13615995451981   14.93010186712063
H          -6.92198422699500   14.35577420926534   14.63401114457001
H          -3.96134771823931    7.63888312152244   10.00553000714560
H          -4.27686066065392    6.77829771451307    7.79509254275513
H          -8.12770168472399   10.16858344201146    5.92588046499949
H          -7.01151583274077    8.08744894321036    3.98145089724597
H          -9.11858200028279   10.32046981263709    3.74543100227757
H          -6.91363199149695    7.83638659833488    1.94949914540229
H          -7.35097347379031    8.58624370741784    0.41162908509292
H          -8.37879393547111    7.34074936551010    1.10679141043680
H          -9.75220747104795    9.36772195757889    0.28146511501783
H          -8.89884800582083   10.85740837638096    0.70006868413540
H         -11.41774572998423    9.87374672092608    1.86623782604654
H          -9.89276034936726   12.36136498314636    2.25261336135162
H         -12.75320956467566   11.50130648800524    2.99146957714761
H         -11.11855816778444   14.01916068333752    3.67803969478426
H         -12.52040019218370   15.69589328992028    5.15861447748581
H         -14.91458316869431   16.00141769934661    6.06943719889156
H         -17.22018881234555   15.53488440172688    6.89425215052265
H         -19.60825655435587   14.59785129378543    7.14665003875309
H         -21.15820734844809   12.93244145157750    6.17913589296529
H         -21.89531794704291   11.30067703992259    4.70643226558677
H         -20.89863207686095    8.47426752163233    0.37551895375229
H         -15.43508405120821    7.60176870165334    0.84350589174323
H         -19.78326971238031    7.26041439736108   -1.50081049537745
H         -16.49810633402825    8.77477947491511    2.70381782404670
