96
 SCF done       -202.496492941279          0.000540735883
C          -0.54344703883510   -0.01235458992004   -0.02103786665783
C          -0.49026394784209   -1.20883418035155    0.64653099430607
C           0.62238354253218   -2.07408778564755    0.63665165360833
N           1.49991852933798   -2.81348573784326    0.66554029717933
C          -1.54382565509129   -1.71863050342977    1.43208607494810
N          -2.37860809006751   -2.16752641943241    2.07978119068044
C           0.52440700352192    0.56135453903549   -0.83700634761050
C           0.09500333036243    1.81651391876121   -1.34226772806369
C           0.88249796733357    2.59850982479034   -2.15238272142029
C           2.15517517007150    2.12090874372288   -2.48221767089545
C           2.57580380383043    0.86902619545167   -1.97352496209275
C           1.77888647111381    0.07815441035779   -1.15281863472208
S           4.17929214053671    0.46942127670087   -2.50600125079009
C           4.26303684936327    1.96775975193888   -3.39395427140447
C           3.14770663979921    2.73038486443639   -3.29686736694799
Br          5.81253216166218    2.38429622151431   -4.36443470393704
C          -1.26580077944886    2.07793576691379   -0.86257877993671
O          -1.96260028376388    3.06491114833241   -1.09031343359330
C          -1.64675102515938    0.91877609311279   -0.05243710372001
C          -2.89342869026161    0.82363994965223    0.52052041372178
N          -3.77764038027353    1.81288074949472    0.35113736774283
C          -5.05585210290786    1.86777901162821    0.79319443125351
S          -5.77064546180995    0.57255087180797    1.70089688612690
C          -7.26292707640665    1.45693445742201    1.73442150150079
N          -8.35140823856659    0.87785171391634    2.40601761796856
O          -9.39662460615641    1.49853536866731    2.42296434633300
O          -8.16180575313818   -0.20896133191681    2.92009584372513
C          -7.21070152285816    2.66070234568623    1.08984822678847
C          -5.93901010598889    2.93152455579957    0.53821904097228
C          -5.57181287535483    4.11757115765030   -0.16806570621457
C          -6.45074435273757    5.05594101504234   -0.61213168862997
C          -6.05797022316808    6.22456733478992   -1.28839139703577
C          -6.93529776980247    7.12385923863102   -1.83791520789650
C          -6.61468017687163    8.32031741363886   -2.52885524144348
C          -7.69285934700042    8.99132666631222   -3.01647699893162
C          -8.92996806489483    8.35965453335210   -2.74714312052965
S          -8.67808412583770    6.90157266152879   -1.81631793793572
C         -10.18791798391914    8.73968853963350   -3.16812554792795
C         -10.54557486044658    9.84980157144171   -3.96823516258207
C         -11.86798093131791    9.89845179281459   -4.28014603632864
C         -12.63452922866693    8.82850069671821   -3.74619263739305
S         -11.60472998280713    7.77951490950210   -2.79279131551913
C         -13.96713328764152    8.61000259263610   -3.97899625345984
C         -14.75338119593280    7.54651709290983   -3.50613020482922
C         -16.07829707753869    7.29866160667275   -3.88639290934197
C         -16.73658125680024    8.12546574984879   -4.80526442393741
N         -17.23203464651809    8.83218623589054   -5.56214860757175
C         -16.61584617245389    6.14547150187281   -3.26556443309055
C         -15.68942243227514    5.54986991480223   -2.41402302478240
S         -14.16754066981430    6.35157833710515   -2.36351280072831
S         -16.24139984746779    4.11486276661108   -1.61103326402163
C         -17.74862911550941    4.29335465862831   -2.44266071205953
C         -17.82942711331558    5.39869293596796   -3.28838631577741
C         -19.06980975442250    5.43107539823885   -3.97179715479916
C         -19.50801304209031    6.45510685780312   -4.82585599939902
N         -19.91711690258060    7.27620899627328   -5.51458041793107
C         -19.88625986687738    4.35348763343880   -3.64358431502411
S         -19.16169695662180    3.32021056546894   -2.43693924571401
C         -21.18309150522245    4.04409897393462   -4.14155003580479
C         -21.69152849327014    4.30364117433962   -5.36982914911142
C         -21.09170089343799    4.73744780157439   -6.61944887947213
C         -19.82808349419779    4.45930347524315   -7.06353748087443
C         -18.86421117465850    3.75143919036037   -6.31894354137946
N         -18.05188204168762    3.16040534390582   -5.76305746435392
C         -19.36419635993627    4.77767458588400   -8.35817567201910
N         -18.94046176668943    4.99663870638300   -9.40127898205418
C         -22.16184629468277    5.29630669302717   -7.43262129213899
C         -23.40864593665835    4.98252261814810   -6.83258628927976
C         -23.17396573337857    4.26255320947873   -5.56886253247541
O         -23.98491877434497    3.77959668282387   -4.81608824485212
C         -24.60785009408167    5.35085722150602   -7.39435990966449
C         -24.57223091188457    6.07137959276316   -8.59260830748326
C         -23.31992009672358    6.39931721549806   -9.16936350420458
C         -22.10749586244124    6.02040612412411   -8.60781245451493
S         -23.51001908972069    7.30854939237599  -10.63544407614576
C         -25.24339913838324    7.23120893064932  -10.46390765184301
C         -25.66150264759166    6.56264152077690   -9.36244300179107
Br        -26.33736507515643    8.03997954206831  -11.75242907192902
H           0.52851655600920    3.54789539295144   -2.52248348669276
H           2.14442078158489   -0.86877093620457   -0.79242373459889
H           3.02874181043856    3.68291218829365   -3.78003834772994
H          -3.20471763254382   -0.03161556419606    1.10587778455583
H          -3.41337680262602    2.59565369845366   -0.22460161320355
H          -8.05817933293181    3.31907094744178    1.04023048051001
H          -4.52047372483646    4.27219838954908   -0.37098006997624
H          -7.51305544160273    4.91174556037127   -0.46998249807907
H          -5.00051456984752    6.42571678622895   -1.39699773784554
H          -5.59432208702751    8.64028127467853   -2.64504982270376
H          -7.63528925555951    9.91200024721278   -3.56857846091519
H          -9.81897741132405   10.56993433536662   -4.29852561751059
H         -12.32583907860857   10.65851943639751   -4.88773293297833
H         -14.47673299721231    9.31379799405929   -4.62547431549277
H         -21.86700213312111    3.57436979960999   -3.44092165441853
H         -25.54392252562360    5.09420823739652   -6.92378985515957
H         -21.17575414491357    6.30366816286378   -9.06831736974475
H         -26.69456021778817    6.42135445046744   -9.10213817235175
