77
 SCF done       -156.889013071859          0.000629874661
C         -14.30145186673378    4.54968650714915    0.86604686539983
C         -14.72177814076180    4.88161171811712    2.12739134020515
C         -16.05496317956438    4.77452693849538    2.57363999996198
N         -17.12257543262358    4.70844100914484    2.98968599190004
C         -13.86829850204896    5.36353354932387    3.14096167614489
N         -13.20691457050896    5.75410459610652    3.99393855351767
C         -15.14545901312812    4.03811530314271   -0.21099451166731
C         -14.33779799573733    3.79065986525239   -1.35199296851013
C         -14.85056633651311    3.30601733066762   -2.53139921603943
C         -16.22476527838320    3.05293561616172   -2.59052787467432
C         -17.02232145073490    3.30139515085287   -1.44773000123669
C         -16.50357413428917    3.79166258229079   -0.25439505245404
S         -18.69098986882932    2.92116781892295   -1.73827922685162
C         -18.30255294416623    2.43961719241453   -3.36838546685783
C         -16.98961748508490    2.55757791600202   -3.68116682955368
Br        -19.66413835458578    1.82815143986653   -4.50342332443763
C         -12.95034433123306    4.13988261593617   -1.03305003790701
O         -11.96869802187424    4.04760435499407   -1.76937784491766
C         -12.95421262984390    4.62413738753781    0.34855641662503
C         -11.80399245505111    5.06544389257822    0.95989588871974
N         -10.64993480811961    5.04700750953850    0.28777905869929
C          -9.42417297857857    5.44225019362428    0.71530419895385
S          -9.16732418884169    6.08235557743144    2.30735770708161
C          -7.48297710549483    6.24975111802464    1.93628850529908
N          -6.64028558142415    6.76875318924446    2.93085621761591
O          -5.45862112323741    6.87743561070487    2.66564172323582
O          -7.16248535132656    7.07122960616766    3.98800004895966
C          -7.14935142954986    5.84047399102230    0.67343771620453
C          -8.25717002672251    5.36866337245812   -0.05699982647491
C          -8.23807554722311    4.84953260633265   -1.40087444349125
C          -7.14295835951239    4.72912931776527   -2.17121239235997
C          -7.11427348628013    4.17404512754007   -3.50190533468978
C          -7.88863472198294    3.20218573657190   -4.00216283826751
C          -8.93267044936376    2.44811686233919   -3.24074461142963
C          -7.72085761293033    2.71351166681692   -5.42597036504000
N          -6.83660870673000    3.47452031971940   -6.26406137445164
C          -7.16812470022127    4.66353756420831   -6.82774959456268
C          -8.35743149531603    5.29471613928202   -6.73172695517612
C          -8.66895950962064    6.48957798859649   -7.43987665188812
C          -9.85231660740969    7.19250989689163   -7.38160925728933
C          -9.84297547373090    8.30909506360879   -8.22292124378876
C          -8.65330036591254    8.47815312432052   -8.93587409494161
S          -7.52157538210601    7.22680759007030   -8.55015803075208
C          -8.64182268321225    9.58080050638081   -9.78887757539298
C          -9.83421303856861   10.27150496286306   -9.73714062123297
S         -10.97856983906677    9.54982686046861   -8.61438654829585
C         -10.19393888893071   11.43042651209904  -10.47587703084276
S         -11.74085079082075   12.20606453797341  -10.29881133765049
C         -11.37322611026224   13.40949056960342  -11.46814014394230
C         -10.12055607055575   13.22616856238419  -11.97147282155115
C          -9.44817757325876   12.11355993172511  -11.41737033747004
O          -8.17979557473788   11.77514528679541  -11.80577591378271
C          -7.55791292968630   12.51856724625123  -12.74292650789007
O          -6.44854713611672   12.23293871430081  -13.09278960432804
C          -8.29044305630365   13.72968634944349  -13.34616919918786
O          -7.76892708652151   14.40932192330633  -14.18062451081883
O          -9.53943538931189   14.01885007851774  -12.92238679515134
H         -14.21359659728228    3.12846235777199   -3.38369350654241
H         -17.15264258283734    3.96609449781661    0.58727030235561
H         -16.57774918538340    2.30635997111167   -4.64143574901439
H         -11.78757809317411    5.43612222857274    1.97651439077743
H         -10.74356071603884    4.68106935572772   -0.67775248739331
H          -6.14010281618649    5.88810869215242    0.30887762410815
H          -9.19136246958141    4.56414430512896   -1.81586386336964
H          -6.19089086304050    5.09281601682847   -1.80862331378882
H          -6.33775274255746    4.58350150921490   -4.13614466145378
H          -8.66948707152599    2.37622703308497   -2.18782886934201
H          -9.04039648709257    1.44376937198823   -3.64663531697224
H          -9.90295238980679    2.93921319725578   -3.31588511178532
H          -8.70929706943571    2.69195065710243   -5.89985787172159
H          -7.35359840835749    1.68124394140278   -5.39819975230986
H          -5.86354294507287    3.21987499684771   -6.25413896211694
H          -6.38931262950154    5.09796194323098   -7.44082139326270
H          -9.14431846736687    4.91118234217559   -6.10069593624265
H         -10.68141580158596    6.90519512467998   -6.76204974498547
H          -7.81788722464188    9.86559090245360  -10.41503943489921
H         -12.08031226885169   14.17129755614730  -11.71925993323634
