107
 SCF done       -193.230476827575          0.000779707282
C          -9.11016195910755  -11.41384751910832    3.43701517663521
C          -9.35916772156615  -11.09908610283372    2.11690648111423
C          -8.87288543423563  -11.83864393397412    1.02360055380662
N          -8.50451801615511  -12.39112053974861    0.08488365297083
C         -10.14692334368815  -10.02556777355831    1.66148229655826
N         -10.78156733056815   -9.18888340938210    1.19239724219095
C          -8.33955368146164  -12.57371797195970    3.88768619501992
C          -8.36091261290234  -12.60496665309678    5.30243089404030
C          -7.72331290199534  -13.57580608321186    6.03244360402740
C          -7.02400200521811  -14.56602642969443    5.33168769188801
C          -7.00618635449352  -14.52537877052676    3.91992421064570
C          -7.65596426890952  -13.54264986770124    3.18048076517392
S          -6.07949438387454  -15.83789468160712    3.25430512901079
C          -5.73534917312407  -16.41409793473769    4.86345311029008
C          -6.28329702418379  -15.66519178945821    5.84842649047385
Br         -4.68087827951714  -17.95030939821715    5.09100454285361
C          -9.13986255446134  -11.44795099356828    5.80023371000952
O          -9.35865026607650  -11.18546930606904    6.96899897184917
C          -9.56211516330212  -10.70864303906490    4.60099156151240
C         -10.22340886300929   -9.48776093143000    4.62233351490496
C         -10.62665771965079   -8.82468398489266    5.76707385155983
C         -11.18303423897543   -7.55075402812865    5.75407935860526
C         -11.56168022838012   -6.78758559456982    6.87117706346939
C         -12.00019616242667   -5.52416775163600    6.56249428119022
C         -11.99135195115189   -5.24817990147359    5.18875711418768
S         -11.43874008919638   -6.63683690084272    4.28591045894632
C         -12.28632034185924   -4.04122069772720    4.55037941215066
C         -12.59317700090823   -2.80518814181117    5.13185506671957
C         -12.69469958997298   -1.78396990066922    4.21782961816511
C         -12.51097462853175   -2.17890219677132    2.88558136388029
S         -12.20338704056948   -3.89712675967907    2.81587449070414
C         -12.37620581156435   -1.30785766268585    1.79790940824792
C         -12.27261056183305   -1.60057560794258    0.45746900855773
C         -12.70595022903413   -2.73462010798706   -0.24086048559101
C         -12.33391160571143   -3.06627757173917   -1.55339360908851
C         -13.00387506573078   -4.14088890390691   -2.07860283637341
C         -13.97946561329016   -4.66517008564902   -1.21606106212693
S         -13.96623803820334   -3.80749211005650    0.30765429895279
C         -14.91403320575173   -5.65596897605838   -1.48566743644551
C         -15.01720769266977   -6.44780814318352   -2.65067934078066
C         -16.09690619246582   -7.27475343801359   -2.66235712348563
C         -16.93005932907848   -7.16606596749022   -1.51410833229819
S         -16.21522118677062   -6.01651902824276   -0.38197231766851
C         -18.15706850741808   -7.73925849816870   -1.36762230325311
C         -19.02309716628010   -7.58492191187350   -0.23073791636333
C         -18.49306210032344   -7.55687921889569    1.03234223901687
S         -19.63896025595438   -7.40065833887954    2.29098271759073
C         -20.91516795496289   -7.31678457398820    1.11491164669284
C         -20.46701006608164   -7.43452196254805   -0.21019401665890
C         -21.41285399890248   -7.29126850348639   -1.25738821108293
C         -20.94336197089376   -7.32996761488233   -2.68967663404722
C         -20.26483247717560   -6.01595515664670   -3.08188833364396
C         -22.75124559643590   -7.05451965026624   -0.96848213783074
C         -23.75515099702849   -6.81636807644401   -2.06763320285536
C         -24.35140696462819   -8.12597803503886   -2.59129674289731
C         -23.20097213278506   -7.01006219434143    0.37293949699522
C         -24.51648116693363   -6.77184454174825    0.92194704951087
C         -24.48856182599044   -6.69055301803992    2.28225155189385
S         -22.93831048523410   -6.92180285628822    2.98622449532890
C         -22.25476746006325   -7.11841880619288    1.40323503294914
C         -25.77619498296492   -6.65835244816441    0.21012905912897
C         -26.73357792412940   -5.77325062597649    0.53341130410777
C         -27.98967447288421   -5.67874719506956   -0.14566026747349
O         -28.26278430332637   -6.54394018519055   -1.17927947056311
C         -29.48534476901462   -6.20545673834902   -1.62261327837995
C         -30.45964969634375   -6.54898092043265   -2.59469992868843
C         -30.42522409114978   -7.60298741541300   -3.62746820846542
O         -31.32006196133707   -7.79222449222395   -4.42188930921263
N         -29.28631470726471   -8.33740650856094   -3.60558928603599
C         -31.48102551397387   -5.65567591571441   -2.36063961503767
O         -31.22290943944896   -4.80674957663647   -1.34515830772852
C         -29.99929931260541   -5.14043544168516   -0.89060572463868
C         -29.03030843684732   -4.79496515501350    0.06917271740416
H          -7.75801472822197  -13.57222108138049    7.11067075007041
H          -7.60928601139564  -13.55591009133484    2.10452708509606
H          -6.17111656719512  -15.87592251386047    6.89637596512760
H         -10.41387305829287   -8.99606759324828    3.67579122779939
H         -10.47576429425692   -9.29427575688276    6.72829315187860
H         -11.48855894251873   -7.17853260354786    7.87031736601516
H         -12.31841693453315   -4.80128534364142    7.29208501968494
H         -12.70605251683472   -2.67810059870353    6.19309165985973
H         -12.89848957774213   -0.76044382243803    4.48039783054390
H         -12.24112984594617   -0.26899092323876    2.07649413909023
H         -11.84091817617890   -0.83040060288827   -0.17148582503132
H         -11.56851889698172   -2.51961466515159   -2.07590370286486
H         -12.83259688801742   -4.53557356863802   -3.06347271991798
H         -14.29597746749531   -6.38373011643036   -3.44509808907650
H         -16.34235061401860   -7.94516231882504   -3.46684969581849
H         -18.49178498203235   -8.35169086797445   -2.19061512187225
H         -17.46127291774018   -7.69053402508989    1.29219827748793
H         -21.77619409843059   -7.50980528293136   -3.36425674704223
H         -20.25773534785855   -8.16355560029903   -2.82690153678642
H         -19.42103085133708   -5.80371364995567   -2.43068325751710
H         -20.97007775655579   -5.19153663900264   -3.00207325082529
H         -19.90584450406381   -6.06640976172877   -4.10739367787231
H         -23.29598015828523   -6.27053351509053   -2.89165675582730
H         -24.55204246389039   -6.18167832542366   -1.67899125244832
H         -23.59273091625080   -8.73143961480165   -3.08181225088850
H         -25.14290477440705   -7.91887367601945   -3.30868821019654
H         -24.76148337807552   -8.71734806051182   -1.77558544382347
H         -25.33241572715882   -6.54673726182042    2.92852336446057
H         -25.96791783924377   -7.35762764141887   -0.58880990587720
H         -26.58076520182935   -5.04973878679427    1.32038514997056
H         -28.56852333531568   -8.18052527828672   -2.92083011646535
H         -29.18449903692084   -9.09143839250055   -4.26329197016432
H         -32.42057742884479   -5.55525674423245   -2.86612191749305
H         -29.06640916083738   -4.02482311137542    0.81026800306870
