134
 SCF done       -233.983792290695          0.000645263795
C          -1.38166959210402    2.13798404348552   -3.59911089694414
C          -1.17562885090635    1.11144325907604   -2.71374678782606
C          -0.48771466928220   -0.07819255388142   -3.03070225239192
N           0.06856323404300   -1.06324288909169   -3.22695614977951
C          -1.64180159804805    1.07411874939220   -1.38264088487149
N          -2.00042143374988    0.95161041135843   -0.29831081159557
C          -0.98564563388935    2.13623255545374   -5.00108282414514
C          -1.49670351996267    3.30398248717354   -5.61553165665560
C          -1.29750695507351    3.59183546466516   -6.94373729837135
C          -0.55931713480740    2.67993408018503   -7.70481885986895
C          -0.04823330364135    1.51656022073572   -7.08160367778291
C          -0.24803567415920    1.22727000836597   -5.73778662404358
S           0.83898759292964    0.52858615065602   -8.20310486257877
C           0.51229895430410    1.67449853071575   -9.47626250320949
C          -0.22134926767267    2.74290605522583   -9.08452980236135
Br          1.17147942165327    1.35220808217491  -11.20250388984658
C          -2.23659892095700    4.10901986159821   -4.62098129590347
O          -2.76406840821910    5.17903702786241   -4.83187067022664
C          -2.10679864574386    3.37092126952511   -3.33811683219076
C          -2.40908725478692    3.84365254398878   -2.09571844353807
C          -3.20640067330622    4.97615418460414   -1.72899027950974
C          -2.92231770486843    5.61337145126301   -0.50397285465712
C          -3.66227980955138    6.69881446557700   -0.11768324422782
C          -4.72935555934791    7.15562596179244   -0.91684911733414
C          -5.05145765702360    6.50275787019752   -2.09994594632177
C          -4.29043382872480    5.42547852469617   -2.49942221849936
C          -5.33397494655583    8.29336180126696   -0.26794158550439
C          -4.64576076947121    8.54609419402875    0.93280342743424
C          -3.52503891416239    7.55059508519874    1.12290737370024
C          -3.72605827926577    6.71643561163670    2.40202597939111
C          -5.06656087974868    5.99220253421337    2.43221817350942
C          -2.15348002285120    8.24969064814515    1.17200204219994
C          -1.87694024989064    9.09839082738020   -0.06325599246753
C          -5.02609468747790    9.58188056914748    1.74803181298933
C          -6.11726366502174   10.39340727681968    1.38995366676425
C          -6.78353957172272   10.13212842186663    0.18196639773124
C          -6.40367871344520    9.09628411267987   -0.64327303842110
C          -6.49627179370567   11.46447358700717    2.27556276548888
C          -7.64075194353252   12.18093323491255    2.19487610942495
C          -8.06202078596296   13.24286612998779    3.03617807080529
S          -9.75387194528294   13.63993644698878    3.01648628170379
C          -9.59595429671996   14.89042708787577    4.20261410221672
C          -8.26017654875252   14.99053853027540    4.62582024600519
C          -7.38890510442422   14.08193307465514    3.93445925862487
C          -5.99991796462470   14.14472087375136    4.17191481450884
C          -5.52241879035776   15.00093439889861    5.11875533817350
F          -4.19826470201101   15.07292371453648    5.34556299978597
C          -6.39517837056356   15.80691980467853    5.88258099297949
F          -5.88082192012894   16.58567177565743    6.85004198688425
C          -7.73835751880433   15.81489495292608    5.64454928988731
C         -10.75927482030043   15.61598300774747    4.55665798217660
C         -10.77370498776627   16.84035282491322    5.14524181222046
N         -11.88572248143213   17.47950386258806    5.54963048641530
N         -13.17989070317009   16.95227389193188    5.62235999012486
C         -13.74468705274426   17.55880117726197    6.82568229794681
C         -13.49188983852375   16.73770826727750    8.09894187329544
C         -12.03042589631144   16.35954235286099    8.33111368981857
C         -14.14372417731543   17.47613525187513    9.28482371871241
C         -13.95875628418568   19.02589349864281    9.24372479084971
N         -13.64361099776169   19.37390102284925   10.61853362112193
S         -12.55382888518172   18.13007004866741   11.16818160443230
N         -13.62878595072413   16.96402009482746   10.55002647821311
C         -12.90595900697494   19.54654871568157    8.24276337150330
C         -13.01331011894480   21.07465348166376    8.18972848673617
C         -13.09782139129580   18.95923532445014    6.83692582967646
N         -11.85821493216890   18.74987622414532    6.06592619456179
C         -11.26522124459777   19.66567735674752    5.24158555551344
C         -10.68652658496640   20.86655006917666    5.53877796561784
C         -10.51006906786143   21.85472988111144    4.44281024246527
O         -10.65203386715128   21.65651419299378    3.25578628148493
C         -10.19167543088226   23.12854727742714    5.11864202686822
C         -10.03863142268504   24.37321014773369    4.58226929919136
C          -9.76530699309662   25.46491119485489    5.43910737629045
C          -9.64962531678382   25.24142580387661    6.84175067252904
C          -9.38690381995718   26.33459848007237    7.68859041954725
C          -9.24572546435169   27.58340777116937    7.14914382881510
C          -9.35229313087832   27.82339158782831    5.77345661000231
C          -9.60804085604384   26.77191905031297    4.93674649707440
F          -8.99671486082343   28.62950890390486    7.95842908336464
C          -9.79522835111111   23.93586537322342    7.36889962820259
C         -10.06236684399632   22.89878519168104    6.51909911568317
C         -10.22883660792119   21.46995000725930    6.76129345981138
C          -9.75925867402389   20.78121597702518    7.86028201083470
C          -9.62401725504651   19.38746224542987    7.81377119274166
N          -9.48405547419027   18.24935162648855    7.72195562508355
C          -9.33066311249992   21.38964807161095    9.05080187090893
N          -9.03462971532171   21.85307848485071   10.05952424727524
H          -1.70123420860709    4.49134596460910   -7.38152062268089
H           0.16725319117014    0.33098045548107   -5.30848516996467
H          -0.51290087969535    3.54373669066074   -9.73927109823094
H          -1.96458342946359    3.32357724077477   -1.25420582289638
H          -2.10470011690080    5.25095883626140    0.10285185361078
H          -5.88730341643877    6.83064142791144   -2.69888394303356
H          -4.55181123795394    4.89804922121691   -3.40106699424617
H          -3.65332011563458    7.38020978901322    3.26604142744936
H          -2.91811635407302    5.98555397072264    2.47373234144747
H          -5.88908120568480    6.70244549036130    2.38129289644427
H          -5.16120214214796    5.42116494046085    3.35274512934512
H          -5.15260455842674    5.30617253439874    1.59250251807865
H          -1.37686354794438    7.48833759097696    1.27072183813687
H          -2.11559760930406    8.88166019764293    2.06170237928945
H          -1.89022276968163    8.48679505055735   -0.96277623110357
H          -0.89983787466972    9.56890317898079    0.01818282420882
H          -2.62691451538286    9.87917990443532   -0.16913124496033
H          -4.50149604568460    9.77948172302292    2.67227769738552
H          -7.60505199116766   10.76383927119996   -0.11799744616632
H          -6.92791133417985    8.91469360867678   -1.56959651133937
H          -5.81101909541280   11.64852806755917    3.08978267975623
H          -8.37414097501888   11.90284091335436    1.44858094745794
H          -5.30706834034893   13.55098379796655    3.60181445715803
H          -8.36978921053965   16.42748001530206    6.26538901834736
H         -11.69470737461436   15.16041771413309    4.26021068977880
H          -9.87404061733649   17.40860265340403    5.31431786534844
H         -13.13696834926526   15.93747625016636    5.68727928523594
H         -14.82585630373832   17.65080768332405    6.67742254096087
H         -14.04419577692836   15.79603866479220    7.98578391339358
H         -11.35402113811238   17.20665852644813    8.30178318351169
H         -11.69940274591813   15.63513915263872    7.58903992719852
H         -11.94312747237808   15.89520642829694    9.30890512507134
H         -15.21868205092665   17.26823906316251    9.24630818823085
H         -14.92305856275061   19.49204265199168    9.00398200010564
H         -13.24238936411412   20.29505301069743   10.73252653840113
H         -14.37638390614557   16.79704515494986   11.21488797149719
H         -11.92327025460293   19.25426236664388    8.62109960753854
H         -14.05753012269141   21.37622362318881    8.11949318896036
H         -12.49352567009653   21.47543210765595    7.32522225166179
H         -12.58373910485509   21.53462061831377    9.07696812894030
H         -13.73524572731908   19.64515887236661    6.26189322750441
H         -11.22325573123888   19.37330534338738    4.19336485747016
H         -10.12473632806548   24.52645113672273    3.51707425459403
H          -9.29400586218888   26.18597429408209    8.75307843394149
H          -9.23062237099727   28.82927962734944    5.40423675221532
H          -9.69450908839802   26.93227632383869    3.87259721160254
H          -9.70152739722668   23.79024859814219    8.43368686637128
