96
 SCF done       -198.955989663634          0.000563961953
C         -14.43190742386533    2.40870736888115   -3.20848267888173
C         -15.37650413041466    2.00596183604251   -2.29916504817606
C         -16.75657216319084    2.26255338668256   -2.42226004552577
N         -17.88914935567222    2.44468327874482   -2.46959795143897
C         -15.07958747599234    1.30492266516338   -1.11299211769911
N         -14.88356394062863    0.74290596912261   -0.13128942698552
C         -14.68978714610518    3.17078691604186   -4.42848866827088
C         -13.45339561807941    3.45582378924029   -5.06358559641338
C         -13.37065259801501    4.15526201703466   -6.24292252282726
C         -14.56432388307761    4.59083928615305   -6.82849919992050
C         -15.79255016046081    4.30030819748721   -6.18923184792021
C         -15.87614243875769    3.59612637456692   -4.99316351245126
S         -17.14299399679582    4.92244941795241   -7.08681331568230
C         -16.05491334414481    5.55543422938253   -8.29325101583076
C         -14.74675435622630    5.31523481674015   -8.03816889996096
Br        -16.74796385489570    6.47379794881150   -9.77418576815243
C         -12.36522642052689    2.86773914671417   -4.26970877437736
O         -11.16243918451715    2.91454627063615   -4.50220919372776
C         -13.00752736691736    2.18925276125911   -3.13978655956289
C         -12.28517077774296    1.42866266207549   -2.25127483159861
N         -10.95713552206770    1.33629690040508   -2.36361644635150
C         -10.13375121479253    0.51280310272431   -1.66631950993925
S         -10.74642724384692   -0.68196184591067   -0.56393454173649
C          -9.13247617250547   -1.28170786822985   -0.35412578671954
N          -8.94674231704964   -2.35416530722395    0.53021405226570
O          -7.81533728861353   -2.77257998338850    0.68137866415607
O          -9.94278969207391   -2.78697554142582    1.08182693236596
C          -8.19478997350642   -0.61177504610655   -1.09264623747552
C          -8.74602598780297    0.44749249335429   -1.83962263052452
C          -7.96859580411134    1.33222658083136   -2.66634559135198
C          -8.25247065435645    2.64024846227757   -2.85017176721252
C          -7.53590229059467    3.56574510865642   -3.66698265500653
C          -6.62103649311701    3.22897306270170   -4.68872256469324
C          -5.92992563433695    4.23657482615714   -5.45426670211545
N          -5.09061835445420    3.88107468012137   -6.42569667553290
C          -4.89321268580340    2.60206381526660   -6.68218694133353
C          -5.57535610380665    1.60332032968274   -5.92710406934609
N          -6.40954610300092    1.92997417071520   -4.96908032924003
C          -5.36333640480013    0.22999724313924   -6.21021433261555
N          -5.16764761601435   -0.87135793409467   -6.45698031161401
C          -4.00395386187371    2.24045269387824   -7.72020836263506
N          -3.28694002702948    1.92215180923057   -8.55627586448203
C          -6.08883254890327    5.64230914175986   -5.20152372759343
C          -7.04424723978802    5.96569072604944   -4.20338491610176
C          -7.76005395998582    4.94820017637051   -3.47469603937147
N          -8.61684236923924    5.47540505857397   -2.60048277347698
S          -8.54130955634675    7.08130760619396   -2.68536245751073
N          -7.40964067275900    7.18500322791153   -3.83205814961398
C          -5.31347427831965    6.53958212790974   -5.93523195000651
C          -5.13291248583674    7.90886704533278   -5.83009004898044
C          -4.24245957727594    8.61644617116745   -6.66959867187573
C          -4.10800213080259    9.94221467830021   -6.36688881091687
C          -4.88701841313688   10.33466787309119   -5.26591258330182
S          -5.83097046780725    8.99471099255583   -4.65693477990803
C          -4.93852406581935   11.58862255583845   -4.66431427826752
C          -4.25072810331621   12.75869170041828   -5.03410859015952
C          -4.48936108465470   13.81894904269178   -4.20613956706844
C          -5.37294643529779   13.53835539318504   -3.14079178450404
S          -5.91109927636851   11.87276840093541   -3.24408914264506
C          -5.71406230038077   14.44158078657668   -2.15432436579231
C          -6.56755568743588   14.25369760248989   -1.07017126408371
S          -7.49362482030373   12.78150255072638   -0.94227905750094
C          -8.29112161795614   13.28190814528346    0.49420962839355
C          -7.79902539941526   14.51994341628798    0.92984099243922
C          -6.84043523082802   15.10561037596436    0.03323148974144
C          -6.24919449653325   16.34918509261802    0.38444529229462
C          -5.32965911581923   17.15000757372393   -0.45186746917692
O          -5.34451739688473   17.25702386641008   -1.65532868911891
O          -4.45155011288841   17.84402469754083    0.28934783538719
C          -6.57493878889134   16.91895488384363    1.60376950421097
C          -7.46187356404242   16.32370170922882    2.49267826288169
C          -8.07831951457332   15.13311486161455    2.18113215239869
O          -8.90269482818739   14.51826390844129    3.05074570013666
C          -9.32868016904056   12.41497100058338    0.98897525355229
C         -10.47928335032599   12.79701000462080    1.53826003851997
H         -12.41615415295561    4.35542701739476   -6.70391709603784
H         -16.83627061360067    3.39620668076487   -4.54774214606103
H         -13.94280245556813    5.63275181740949   -8.67677898954947
H         -12.75506978901465    0.87344320978989   -1.44930822626133
H         -10.54728909229625    1.88485129662644   -3.14191668131814
H          -7.14996615188946   -0.86404920823017   -1.07432082634769
H          -7.08433561089514    0.90635149365009   -3.11527659988251
H          -9.04460074788682    3.10796537046050   -2.27861987831480
H          -4.71133851206720    6.06358931602176   -6.70118290735137
H          -3.71681905974912    8.12188106391975   -7.46735335838061
H          -3.46602961906893   10.62131781593538   -6.89842005688453
H          -3.60064837800560   12.79389320694087   -5.88927484925497
H          -4.05477848583234   14.79539407555598   -4.32559547977534
H          -5.26844989877203   15.41803938791464   -2.26208680207259
H          -3.90186380959435   18.39779349929956   -0.28773152742002
H          -6.12211561673777   17.85821569901362    1.87723490383838
H          -7.66203578495208   16.79743560934052    3.44361220945690
H          -8.94705774385374   15.01932281164504    3.87625520835692
H          -9.15900645203663   11.36426111215933    0.78616514507524
H         -10.72633499760904   13.83079479674456    1.69622393642615
H         -11.21321088619089   12.07113144119916    1.84058563465718
