90
 SCF done       -191.366325076181          0.000927754759
C         -10.81980019116978   -1.41921923849735   -9.13267638346712
C         -11.61089515986084   -2.49190673426414   -8.81416190558959
C         -12.32576421864792   -3.25856453539423   -9.75717999671255
N         -12.92838801609454   -3.91505907066597  -10.48042759857769
C         -11.81519199541989   -2.95841314562691   -7.49926707435689
N         -12.01030793279292   -3.36639201992875   -6.44429788542978
C         -10.59312654384314   -0.89186699202240  -10.47620010602872
C          -9.74270921311322    0.24109121902294  -10.39000085081221
C          -9.34294147674215    0.95378119457408  -11.49477251984180
C          -9.80006917930681    0.52810907883425  -12.74611695345746
C         -10.64762390273459   -0.60314879909515  -12.82326015411551
C         -11.05439308200474   -1.32228115367581  -11.70498563643388
S         -11.09027414517437   -0.95912511176557  -14.46373954208832
C         -10.14375801356347    0.39609593942659  -15.01834064030657
C          -9.52764218201729    1.08258287471891  -14.02610264526377
Br        -10.05685066911593    0.77718371333298  -16.85209597134767
C          -9.39309893912939    0.46629517265464   -8.98271139956910
O          -8.67875261807573    1.35209847849927   -8.52410380535455
C         -10.06383940611624   -0.59182548117505   -8.21979852235991
C          -9.91010218623631   -0.70780436311662   -6.86009947995810
N          -9.14904576905980    0.16579846939746   -6.19103232723273
C          -8.86781300846164    0.15935231890726   -4.86440767123905
S          -9.49509098517184   -1.05654131924669   -3.79904232928589
C          -8.64502117302955   -0.30718993206826   -2.48503256287373
N          -8.77816990772143   -0.89378636838676   -1.21473818500629
O          -8.19052411595976   -0.37380009146419   -0.28852943041229
O          -9.47965041148567   -1.88628388976538   -1.14766147424408
C          -7.92771329314365    0.79886140868708   -2.84478212467719
C          -8.04172087459289    1.09469021084252   -4.22006960333924
C          -7.43267057682974    2.19073652412880   -4.91055738994889
C          -6.54434366912739    3.05956451697947   -4.37897136437040
C          -5.96655656406408    4.14585199690097   -5.10734567021372
C          -4.98901040595448    4.96295339784636   -4.49175431466689
C          -4.37878159933733    6.07626183988526   -5.17367006933775
N          -3.54684164965818    6.89870596812662   -4.50745124550533
C          -3.22705871180770    6.61666643553394   -3.27415075042261
C          -3.74732335837442    5.44121759393917   -2.62869401181133
N          -4.62055201793452    4.67635697202998   -3.23047121047277
C          -3.33006537550719    5.11717159711576   -1.31335055386360
N          -2.96931908047223    4.88548774013803   -0.25130698668079
C          -2.37266593839231    7.49559878308212   -2.56121190752048
N          -1.68924467092592    8.18607004231736   -1.95534336042722
C          -4.67930870840608    6.37679808788189   -6.51302624772591
C          -5.63786597642990    5.56836448587738   -7.13797225584517
C          -6.28506881773794    4.47636193160821   -6.44231069935958
N          -7.15709715278567    3.84978591628143   -7.23787784933780
S          -7.14065337489454    4.52944194659050   -8.68638143879756
N          -6.04465280487270    5.65844536455604   -8.40884641060044
C          -4.04595639936751    7.49008175797714   -7.19542714930090
C          -2.68259206428820    7.70921146179922   -7.18229434538427
F          -1.86724117237118    6.81663510169523   -6.59912819471149
C          -2.07472309459494    8.79872436227847   -7.82463804330041
F          -0.73308074014483    8.85095480615302   -7.73237528789036
C          -2.77289394500920    9.78126449035285   -8.51719823203738
C          -4.18548739698488    9.58010975708076   -8.54621059299769
C          -4.80620431663343    8.44835073996357   -7.90511491236229
N          -6.13076600176341    8.46178783113180   -8.02658321868746
S          -6.55832660945865    9.74667196054548   -8.88727608825361
N          -5.09231536922395   10.35961210426101   -9.13100400424634
C          -2.15062864140058   10.91554415757354   -9.14936246609763
C          -0.76766911239603   11.14144797733432   -9.33072558974287
C          -0.59180848863549   12.37603437887289   -9.97549474243402
C           0.55975303508681   13.05236835649454  -10.37190668080959
C           0.39832386276161   14.28415293280246  -10.98685395298357
C           1.33228010134121   15.21113844314639  -11.49466708185803
C           0.64383601648607   16.31811315599805  -12.01815149359326
C          -0.73278993400926   16.09376050158458  -11.84300648089512
C          -0.91675943437783   14.84729316591615  -11.20969192338813
C          -2.06415937977978   14.17364895126017  -10.81830932805662
C          -1.90434963110658   12.93573060551469  -10.20096938904362
C          -2.84005020505912   12.02173535911044   -9.69092729355769
C           1.28351579419016   17.46427874003992  -12.62057998408542
C           0.65643971717512   18.52456539886345  -13.12213252599905
H          -8.69478494421790    1.81073094146527  -11.39815667274088
H         -11.69916288632134   -2.17783918686551  -11.81633085929716
H          -8.90532870222205    1.94326376439560  -14.18979994982701
H         -10.38026588263169   -1.49759233727302   -6.28834477816677
H          -8.72503495360870    0.89827709274286   -6.78912212858815
H          -7.35421067001667    1.36840349074131   -2.13689719415215
H          -7.70813355379327    2.33552806354889   -5.94506350458350
H          -6.20439132525939    2.96653091722173   -3.35812510188405
H           0.03180296483554   10.48784888265454   -9.04015073176395
H           1.54087428804332   12.63199326695714  -10.20184465429590
H           2.40087253338048   15.09130807268972  -11.48296343973402
H          -1.52353149106038   16.75803569742696  -12.13888370450878
H          -3.04696727390703   14.59199888881286  -10.98399820070432
H          -3.90656154837059   12.13634290827361   -9.69967316956049
H           2.36515791931912   17.42047946149268  -12.64771175555496
H          -0.41639724098901   18.61283609746911  -13.11753365963496
H           1.19943523953008   19.34524450714806  -13.55727297708324
