101
 SCF done       -192.010041726471          0.000935991237
C         -13.50078902649259   -3.82296980336220    4.26046476008751
C         -14.35484450217345   -4.87418670183755    4.47650651033484
C         -15.31950288483086   -4.91010148232744    5.50361535466984
N         -16.12286948845101   -4.98454167017447    6.31990787230960
C         -14.32972916093619   -6.07029038415057    3.72965233278293
N         -14.32263354027047   -7.07773266560814    3.17914398249158
C         -13.38015413705814   -2.62676866653859    5.08448116358301
C         -12.26827420662283   -1.87424793937729    4.63013561266038
C         -11.89712603576347   -0.68468493922828    5.20699991442093
C         -12.65812546517882   -0.21529123696183    6.28361219133609
C         -13.76822495271735   -0.97278816471008    6.72816293346876
C         -14.14374053805214   -2.17709592357712    6.14465081729248
S         -14.57582006424533   -0.20311697556246    8.05947517530105
C         -13.42800423024818    1.10799493902791    8.00307784280819
C         -12.48623968714159    0.97691651198574    7.03798038273263
Br        -13.57942680705099    2.52452957888163    9.22261674818150
C         -11.65451221057737   -2.55235674692956    3.47186051616955
O         -10.73321680581278   -2.14460057177774    2.79259944400138
C         -12.48086027919510   -3.75582953633357    3.23783709778212
C         -12.41704959083689   -4.51393046668472    2.09712195965109
C         -11.34936434498030   -4.53135690894103    1.17749476994505
O         -11.67104375336074   -4.77230593649962   -0.13754537321611
C         -10.59265995641763   -4.64522955719341   -0.87565238845810
C          -9.49585156472838   -4.36275624822599   -0.09251203350353
N          -8.17449383553153   -4.17695286120013   -0.53719757525436
O          -7.95639470903792   -4.27748263439718   -1.72449859737143
O          -7.32742053965488   -3.93399061965859    0.31092001012814
C          -9.95888616399742   -4.31998072185208    1.26993834569281
N          -9.13221882603204   -4.23279545476387    2.31914853537389
C          -9.40993246048013   -4.52233697418365    3.63215502589806
C          -8.54634347016401   -4.32473027398415    4.63751977354160
C          -7.17296564074733   -3.76102039356945    4.46493384652872
C          -8.94737332836634   -4.72267762756748    6.03682468959401
N          -8.37662671623243   -5.99901948050106    6.39947553374997
C          -7.31745173515981   -6.15684158085668    7.22393758121975
C          -6.64509588888596   -7.32408056658309    7.34363275000054
C          -5.59615993437890   -7.65247979175044    8.24770026277556
S          -5.31031702422623   -9.34613188444064    8.50614271253846
C          -4.06631411730744   -9.02577295729375    9.68019855502648
C          -3.88211196663063   -7.65724622691243    9.82969730729869
C          -4.72517756098075   -6.88617520899148    9.01384155952299
C          -4.63707516854465   -5.37920235509882    8.96257159969993
C          -4.67485467275982   -4.91358698679865    7.59530566100201
N          -4.65959269329306   -4.52010982387877    6.52168746900979
C          -3.33153868185569   -4.87318339015391    9.59802283764985
C          -3.12394930911177   -5.54130356464453   10.94785166949919
C          -2.85039428787249   -7.03938905387288   10.74233085819021
C          -2.78681243752006   -7.65996754237652   12.04668386749722
N          -2.70377442301699   -8.08224533186905   13.10643359281062
C          -3.46495406980808  -10.07715038247036   10.40501797640066
C          -3.70169541650110  -11.39966452421387   10.20303228864266
C          -3.16661436235184  -12.42436691300757   11.02013166948792
C          -2.80552502197124  -12.34658837056980   12.33319166503729
C          -1.90168535236258  -13.38260029528457   12.90305309937715
O          -1.58850054283736  -14.43218256600260   12.38614475287033
C          -1.43172876873611  -12.82824931430107   14.18754824087980
C          -0.48564758076580  -13.31225269468136   15.04436080400651
C          -0.16253473320249  -12.57009936215070   16.20281230399273
C          -0.81544169750295  -11.32529850112081   16.44098747120040
C          -0.47210658058990  -10.58222778349107   17.58733498798796
C           0.46989276095967  -11.07221681603023   18.44776725451160
C           1.11837762080142  -12.29619236759148   18.23508514333665
C           0.80087328184432  -13.02812058182996   17.12491350577161
F           0.79872989503450  -10.36374261328161   19.54531253321802
C          -1.79779618435717  -10.85209053941930   15.54035953367222
C          -2.11199333180690  -11.60358565653523   14.44162987513604
C          -3.08651805908853  -11.38086595183280   13.37655040409040
C          -4.19759935636602  -10.59175245076778   13.51351170592311
C          -5.24048672804697  -10.48007904878261   12.57462290055847
N          -6.14332316108597  -10.34020050904638   11.87840964116339
C          -4.48844028939396   -9.84397728658043   14.67504375927711
N          -4.80215005743676   -9.23716106813790   15.59732029420465
H         -11.04905431451690   -0.13025851169161    4.83715326614184
H         -15.00287747311646   -2.71447411686932    6.51036260121263
H         -11.70472838506616    1.69322716053694    6.86193525950909
H         -13.28431549129245   -5.08520534953635    1.79053558144211
H         -10.67099345866081   -4.76286363556160   -1.93991019787822
H          -8.18040800243015   -3.94901117245928    2.08462667242887
H         -10.38301564112988   -4.95424374205553    3.81148399485747
H          -6.74240417224538   -4.01027308235351    3.49787626864067
H          -6.50269944325524   -4.13345128183028    5.23703264094855
H          -7.20386347973069   -2.67421370426950    4.54539659243134
H         -10.03903251339584   -4.79312441008849    6.11052528651351
H          -8.59719157578506   -3.97559025099111    6.75231211778383
H          -8.58167928014695   -6.76349065762542    5.77223580881554
H          -7.09735162722447   -5.29401116724791    7.83299536322845
H          -6.98030586086606   -8.15498422427305    6.73573743719859
H          -5.49063516888450   -4.94337724485352    9.50206225556904
H          -3.38127582971938   -3.78891779812695    9.71357770814993
H          -2.49100411120235   -5.10334084755225    8.93789306561098
H          -4.01520621565108   -5.41622662563163   11.56812673311442
H          -2.28139686791502   -5.08625233471594   11.47155173832939
H          -1.85807288603552   -7.16691548896927   10.28169924543186
H          -2.76978104850478   -9.79182057507126   11.18317533142524
H          -4.28684109066684  -11.70304632728596    9.34451450401278
H          -2.97646223716523  -13.38350475702830   10.54854940064364
H           0.01343248457938  -14.24793278936299   14.84098539176969
H          -0.95570225549308   -9.63831419007756   17.78436208657348
H           1.85252131152488  -12.63297313381612   18.94977148593973
H           1.28787151836832  -13.97369430162985   16.93893330962726
H          -2.26664032436950   -9.89943503826066   15.72787178130422
