92
 SCF done       -193.193919581592          0.000521881119
C          -3.67448694554884   -0.06689017947577    2.77147431432218
C          -2.56326917384026   -0.87419230278682    2.78947881670316
C          -2.29610197073367   -1.82958346254837    3.79187230353268
N          -2.01952742837222   -2.62432196639644    4.57313688417860
C          -1.53574317512538   -0.87975662822698    1.82473730664809
N          -0.66163094924731   -0.94164886725874    1.08093137335892
C          -4.73425786780181   -0.07486924498833    3.77668910905221
C          -5.71751884757438    0.87626044530751    3.40729512531419
C          -6.84583850715109    1.10822539570180    4.15467968864285
C          -7.01324097568753    0.36563227087985    5.32868643976975
C          -6.02615453424479   -0.58086009700365    5.69192927526544
C          -4.88506507833504   -0.81558562400386    4.93331812876005
S          -6.42821802670609   -1.38511112663633    7.17818449760745
C          -7.89702928801374   -0.45259259890820    7.29004104462586
C          -8.07892463420391    0.41738900674042    6.26795073985394
Br         -9.05091376717396   -0.71393651395721    8.74506305040827
C          -5.30880487445231    1.52460138209407    2.14951025607605
O          -5.92593774166557    2.38757150112360    1.54706969406252
C          -4.02438774469399    0.92765886481185    1.77923932916981
C          -3.26323493997267    1.26581266049140    0.68197557389175
C          -3.48286038336461    2.20518934283905   -0.32366794391457
S          -4.86500752439527    3.24872084039238   -0.48202495442515
C          -4.23995192285191    4.00235093951912   -1.90448083342094
C          -2.98232632421399    3.46369816310296   -2.26848348975713
C          -2.55598116621386    2.44124500239593   -1.37973998836808
C          -1.33350959934798    1.78990549719459   -1.60319553421352
C          -0.57572683518946    2.16114917569771   -2.68368131771724
F           0.59240722652709    1.55104296881954   -2.91600125851681
C          -1.00043790723660    3.17653272928407   -3.56302141300939
F          -0.22436004480122    3.50369327289853   -4.60595436627125
C          -2.18898001616713    3.82680130675638   -3.36693502753415
C          -4.92683925126006    5.03019342708744   -2.57586634017474
C          -6.17375572046258    5.47001725414716   -2.25056161495062
C          -6.81307239688466    6.52463165236758   -2.95745991183423
N          -6.14549782620044    7.17192619785737   -3.91924142582648
N          -6.63912228109940    8.14242409367917   -4.59257334362761
C          -7.88982396716072    8.61083605993147   -4.43232366994866
C          -8.71530191415812    7.99541966934182   -3.44530705583700
C          -8.15035193359216    6.92632192180829   -2.67569799342735
N          -9.00434242158620    6.44615839809653   -1.77906302685968
S         -10.38898053074591    7.25734363763959   -1.89004343924420
N          -9.96355260264646    8.25856323080548   -3.08355817910702
C          -8.22151672265735    9.69070819151651   -5.27844892804567
C          -9.40264769283801   10.36540124420412   -5.46000891734328
C          -9.53751971740582   11.44509751850208   -6.37722726067182
C         -10.79061976007276   11.96539299304993   -6.45670823631623
C         -11.71732209358077   11.31474424866268   -5.61053623559572
S         -10.94120236587609   10.04940386534365   -4.68863129120044
C         -13.07260821654541   11.57686038378700   -5.49154906793227
C         -13.82148876594501   12.57942636535393   -6.14561020837259
C         -15.14963725345637   12.56005544270036   -5.83836473928207
C         -15.51544087401643   11.53864929205607   -4.93127749466183
S         -14.10871552385307   10.60956620513746   -4.47039737119183
C         -16.79360563931000   11.25476711734665   -4.49384409354570
C         -17.09487248263955   10.22290295137855   -3.60884019872369
C         -18.33673931565326    9.78776994200468   -3.20597433092811
C         -19.65852730999506   10.04150780578904   -3.71323328999173
C         -20.00230016383787   10.37979017418365   -5.00167113008412
C         -21.32864269200484   10.57208831592209   -5.43575048690565
N         -22.38613052382837   10.76430592290379   -5.84048174070413
C         -19.09330600040490   10.46326552694113   -6.07478294707841
N         -18.41128015096960   10.49836413786867   -6.99841357357393
C         -20.60770728652911    9.64785893371524   -2.67203690750476
C         -19.89905208988476    8.97925626390731   -1.64218399073528
C         -18.45730848949103    8.98574163265613   -1.96563658050390
O         -17.55355038850625    8.48027398745569   -1.33606838364629
C         -20.52393525751381    8.44867091214844   -0.54083497670208
C         -21.91252907352152    8.59417565887002   -0.44439644310930
C         -22.60817967433367    9.27698480126671   -1.46949944404996
C         -21.97671678859740    9.80706054060215   -2.58916444739455
S         -24.31315958754658    9.35217312436439   -1.14479446528032
C         -24.07264189831186    8.47238224180286    0.34148110518035
C         -22.78262607534598    8.14067877441851    0.58479626359083
Br        -25.54695715168337    8.07692465068231    1.43153590059169
H          -7.57575871715283    1.83967150814144    3.84531286721399
H          -4.16350912922632   -1.54730667826924    5.25545704300257
H          -8.92875786486979    1.06914177984400    6.17893247611488
H          -2.33143087921585    0.72942421420896    0.57394152591971
H          -0.96718722453685    1.00525022827353   -0.96020145410536
H          -2.49509145941111    4.59858955013221   -4.05348676957861
H          -4.43807424615271    5.50849928693211   -3.41325771455274
H          -6.73290503928327    5.02116797809620   -1.44132334602958
H          -7.38741066326449   10.01402635163894   -5.88958958997125
H          -8.69567279875900   11.79370691362938   -6.94878818704048
H         -11.06942076774197   12.77932304584751   -7.10112023723302
H         -13.36709967827692   13.28396766888758   -6.81830703609644
H         -15.88096696277483   13.23539969925842   -6.24468983383147
H         -17.58319903125147   11.89214162362540   -4.86447105462681
H         -16.26084803664521    9.73675782188671   -3.11049995607176
H         -19.96100774521741    7.93615229097401    0.22334214419578
H         -22.54927820003117   10.32239992471681   -3.34234442975751
H         -22.45589271746404    7.59868992883166    1.45338664122050
