90
 SCF done       -165.265518689941          0.000552765793
C          -6.02651223205450   -0.55867885149103    3.80829247017949
C          -4.85958900351175   -0.52575996325780    3.08465237806500
C          -3.93687109230784   -1.58958080704152    3.03717999356242
N          -3.15589386672341   -2.42810501122399    2.95522937781111
C          -4.42381521400520    0.54466616259718    2.27799258405083
N          -3.98266515204918    1.37301364787675    1.61536321812808
C          -6.45876381107637   -1.67245290669759    4.64939512236000
C          -7.75697243364866   -1.39324615010275    5.13702838694518
C          -8.42710135697262   -2.23523526851767    5.98988124059898
C          -7.78301333506800   -3.41250675074438    6.38454176382238
C          -6.48777987633407   -3.68426259037692    5.88885175148083
C          -5.81053282424983   -2.83334180947752    5.02382983182579
S          -5.87179627429678   -5.18831492625502    6.50368380360002
C          -7.35621252900941   -5.43906002948573    7.38400640085470
C          -8.25989923471153   -4.44199942037231    7.24247398007389
Br         -7.58502097126550   -7.02047093840967    8.36192568323498
C          -8.20574321670084   -0.08871906449705    4.60290332110069
O          -9.30077013840002    0.40986676950562    4.78006452997357
C          -7.06443222935932    0.44365514333594    3.83560838185073
C          -7.00340347282339    1.70582548584218    3.28791977522966
C          -8.06843972291616    2.60769096242708    3.19908366499641
C          -7.88801324606621    3.88306737986815    2.71350894520152
C          -8.92497828308721    4.78869603923956    2.47762954050481
C          -8.69889206739801    6.07892087491182    2.04491303809821
C          -9.66311518873008    7.01086450523339    1.64869720973156
C         -11.00197170318050    6.73997085469124    1.44335811044667
C         -11.90511316721138    7.64778224942484    0.90942650429432
C         -13.19716204028756    7.30654352732067    0.53602799518391
C         -14.13881005214258    8.09974560769736   -0.14464699562639
C         -15.28114494775756    7.43066902242083   -0.50237122042946
C         -15.29308368149793    6.08614280336517   -0.10020183301672
S         -13.83297863760793    5.69362127889633    0.76971747415575
C         -16.22872474904227    5.08973111984549   -0.36904563856621
C         -17.33050003650764    5.11412132546158   -1.23948003812977
C         -17.94299263967408    3.89670183845822   -1.37992401167669
C         -17.37055091835356    2.86486765290557   -0.60804769732523
S         -16.04249965461737    3.50660859232449    0.33625003886782
C         -17.66448673274221    1.51230589549703   -0.67796343621551
C         -17.09177648489053    0.50976954838886    0.10725692465331
C         -16.53999051449650    0.70546750353364    1.35476603039724
C         -15.81207204391285   -0.24476712397144    2.07771770595004
C         -15.54328590549258   -0.09837934968943    3.41651155308830
C         -14.73990144858770   -0.94544517385016    4.19842384530828
C         -13.70317929409379   -1.71318843960267    3.73379345294424
C         -12.94404893344428   -2.52773459889582    4.58469815873323
C         -11.70968739789174   -3.08792587691391    4.36316884394304
C         -10.63602848746624   -2.76141921001563    3.46407042894466
C         -10.42509019764782   -1.57067641440157    2.80815232368737
C          -9.23037529701086   -1.26563094408921    2.13257021567786
N          -8.26042763558687   -0.93549894533446    1.60973743246462
C         -11.26739553000944   -0.43971459467849    2.81304324080572
N         -11.87675218930767    0.53109817142252    2.74456876532516
C          -9.65418573158115   -3.84599087720674    3.54273391278700
C         -10.07115628660751   -4.76973740000307    4.53210209675929
C         -11.30402915799777   -4.26421476544793    5.16609044638009
O         -11.86911721895729   -4.71384209785983    6.14083688344737
C          -9.37406669775417   -5.91656364584537    4.82144162198545
C          -8.18342308226809   -6.14808143507214    4.12431141024437
C          -7.75085066614722   -5.20023709004068    3.16816004609440
C          -8.47741588518197   -4.05769558574801    2.85165068374878
S          -6.22846181652450   -5.65109838702320    2.46306294221460
C          -6.20130796309209   -7.09631147076748    3.44061819703696
C          -7.27412955240217   -7.23344008221681    4.25529863596816
Br         -4.75590903633897   -8.27985981283337    3.30274955621433
H          -9.41426594670377   -1.99128710087986    6.35221064800831
H          -4.82050107217077   -3.08472719548972    4.68218078206368
H          -9.22932680101078   -4.43638539780629    7.70725252590938
H          -6.05707244471111    2.03315635545933    2.87606118512881
H          -9.05371277356782    2.28246260201504    3.50048480486508
H          -6.87892537718681    4.20189413757358    2.47714201213058
H          -9.93532635253354    4.43938945356086    2.63712519319435
H          -7.66644708452912    6.40379412119279    1.99359592564302
H          -9.31568413622280    8.00903484517634    1.41259187965931
H         -11.36861835564831    5.74126071728105    1.63980982847986
H         -11.58124944777709    8.66038296176323    0.70673794516775
H         -13.94577556922835    9.13253606292713   -0.37557928495751
H         -16.09838674990855    7.87424386617671   -1.04234805187942
H         -17.62107918862806    6.00183473819734   -1.77212444665029
H         -18.78173026345859    3.71446016611718   -2.02857326418231
H         -18.33664919117887    1.21442399879078   -1.47248963378952
H         -17.13214484147450   -0.50096534161785   -0.27958255832008
H         -16.71445123517583    1.65251199530633    1.84913577913603
H         -15.47427077180965   -1.13322120066200    1.56117288585371
H         -16.02827372339226    0.72025569356786    3.93379515126789
H         -14.88693072343367   -0.90485136064738    5.27099342690029
H         -13.43610483113130   -1.66367747157321    2.68854550574455
H         -13.40512114495586   -2.82342523837506    5.52310539828667
H          -9.72993685502568   -6.61145034017405    5.56633884781510
H          -8.11692680099472   -3.38470015284185    2.09198017213476
H          -7.41631812975399   -8.06070706774028    4.92692634414895
