109
 SCF done       -189.785904670463          0.000749629651
C         -11.86804484614711    4.18665135782830    2.25211769348523
C         -12.14188088761111    3.38197338261664    3.33274990008142
C         -13.18726136908607    3.62001787750736    4.24733889546905
N         -14.01992834661458    3.75698318212945    5.02686843108921
C         -11.45165887034130    2.20361647105282    3.67858548527535
N         -10.94943239657137    1.22879163832742    4.02523666650407
C         -12.62278784141735    5.37852438921547    1.87984743728645
C         -12.09875824590455    5.88590692946709    0.66554017426808
C         -12.59623326193401    7.00779356732385    0.05071538119761
C         -13.66222518432524    7.67046729261875    0.66876400800518
C         -14.17685875322366    7.16172055277092    1.88433431847155
C         -13.67621048002465    6.02233630974426    2.50261519556950
S         -15.48476118976698    8.13839103702587    2.48186821970822
C         -15.32356513122692    9.20094531071256    1.10870112202715
C         -14.34278255345290    8.84484870085675    0.24592618536538
Br        -16.46373916777816   10.68147719207720    0.94495626565943
C         -10.97535741549417    5.03468168370599    0.23144442308373
O         -10.31952207716130    5.17749713141963   -0.78464780402586
C         -10.82085430997937    4.00684874640697    1.26650893307794
C          -9.81906653709240    3.07097607615751    1.34080396981221
C          -8.73146339887793    2.82159784682851    0.49402132164326
S          -8.36203135611718    3.67018495056166   -0.98552655221638
C          -6.92116914290190    2.77330306048878   -1.15745541534669
C          -6.67998287793592    1.87890481178937   -0.14874003205321
C          -5.48969543561564    0.97681281900689   -0.13349070221052
C          -7.72424735853601    1.88381544909012    0.80582894831146
C          -7.78642261831667    1.00407181169047    1.94728341625393
C          -6.72837949890443    0.70209964738507    2.72765616603400
C          -6.77385362601392   -0.23457361967352    3.80024737748944
C          -5.75165187508948   -0.38948045119764    4.67147507424151
C          -5.70858630101760   -1.38501929548295    5.68267742492395
N          -6.49619829137690   -2.41255574801461    5.79151579316481
C          -6.13020851714960   -3.21351027134982    6.79769813237213
C          -5.03134681642549   -2.79329586474998    7.52109619222034
S          -4.41496176857843   -1.32352292235600    6.91242666191323
C          -4.79891108428369   -3.72792621112853    8.63953494441516
C          -5.36027389546668   -5.00309890813919    8.00007184675735
C          -6.67226469364991   -4.54359376982777    7.29351388711777
C          -7.83823648616405   -4.28384903294703    8.26266474661359
C          -8.43076592527125   -5.53953630721492    8.89210433441332
C          -7.05507719823992   -5.47522762586050    6.13601559998735
C          -8.23649895307265   -4.97391338695796    5.31324270689169
N          -5.25761463010883   -6.05794459196184    8.99061334047821
C          -4.28774418283056   -5.69477705723533   10.00177517569895
S          -3.23076756655694   -4.32776438279345    9.34237463759273
C          -5.25665528654463   -7.34807169840502    8.51080416233865
C          -5.11533839426357   -8.47830250164459    9.24971777702770
C          -5.05450097120971   -8.68981614677749   10.65768276035226
C          -4.86108025415267   -9.98378987702102   11.01798800139767
C          -4.72764778349888  -10.88536042759753    9.93209797785560
S          -4.94438331753030  -10.03187694615742    8.41593171496782
C          -4.43175234076978  -12.22798712426396    9.97060704936319
C          -4.19539131346933  -13.03866072016291   11.10843246692488
C          -3.87386647247840  -14.32081094880478   10.80448760083105
C          -3.80554091849928  -14.60772477239202    9.40837603656268
S          -4.21495058478212  -13.16481712881879    8.50309690684246
C          -3.53577594866871  -15.84628173340818    8.90325595979009
C          -3.43581985511794  -16.32613953650829    7.56149056743621
C          -3.12142351867526  -15.56473187562534    6.42707609118866
O          -2.76916299710992  -14.28489635557583    6.70118386876794
C          -2.57484484962264  -13.29222905716115    5.71941744437269
C          -3.10142855389896  -16.16014945150896    5.12312435184546
O          -2.81414054917855  -15.32506964246021    4.07959418213200
C          -2.77255343919710  -15.85480952987969    2.77731956534085
C          -3.34575141685276  -17.50120334091559    4.94323029969152
C          -3.59938536663703  -18.30337259750284    6.06316930968265
C          -3.63641412908817  -17.72189025000004    7.37341116053783
N          -3.88965723394827  -18.62409931677121    8.31495232220625
S          -4.05594813993373  -20.06962748579374    7.61337153312261
N          -3.82207548620573  -19.61559739244630    6.08233968968322
H         -12.17426744555071    7.36580955608069   -0.87522553943328
H         -14.10276869301919    5.67835730080216    3.42978343083129
H         -14.10625973477780    9.38704680252667   -0.65133606452005
H          -9.83364288641992    2.43222615813541    2.21413207637122
H          -6.29410611984840    2.94271416023027   -2.01234252746500
H          -5.16195638564824    0.77645024194875   -1.15100672374346
H          -5.72676721854560    0.03626583120838    0.35840473152830
H          -4.66063535387510    1.44271153236290    0.39875834179954
H          -8.74987529569308    0.57379422769586    2.19062496208918
H          -5.78521251282019    1.20635909635850    2.56701999704640
H          -7.65563035973331   -0.84956465225223    3.90696650350861
H          -4.88973391048564    0.26239860701066    4.61898723898367
H          -5.38221613159323   -3.40844286091820    9.51235905714902
H          -4.67343082933397   -5.25429841753911    7.17004162749875
H          -7.49419632746567   -3.61847675730160    9.05773567299819
H          -8.61397247406714   -3.74708302337812    7.71492126977596
H          -9.20401621567430   -5.25661796035132    9.60290459049543
H          -7.67022755459789   -6.10830462393897    9.41990154889811
H          -8.88355561840042   -6.18115296223807    8.14185919889188
H          -6.18768761653620   -5.56912718488622    5.47648421370583
H          -7.27996009476133   -6.46570903848791    6.53528668180854
H          -8.05932608556664   -3.95162799352809    4.99214353789894
H          -9.15993569650523   -5.00969816535988    5.88425603447714
H          -8.35962459208062   -5.60082036722568    4.43313601558592
H          -3.64091231456022   -6.53202972469224   10.25844834795918
H          -4.77820436401812   -5.30646892194107   10.89949584642490
H          -5.39446190852463   -7.44852073858137    7.44308104310692
H          -5.19643969931940   -7.88568568387706   11.35755614377692
H          -4.79911349429767  -10.32147441128814   12.03714903017521
H          -4.26289660456281  -12.65045852243746   12.10926213583844
H          -3.66198543159992  -15.08414552031468   11.53258646244102
H          -3.45368785926129  -16.63751388060992    9.63941460921925
H          -3.44677182713059  -13.18248356413618    5.07308620481263
H          -1.69032819848692  -13.49342909097622    5.11272468299374
H          -2.43069266626784  -12.37151166723748    6.28523209422248
H          -1.99864230459824  -16.62226419868244    2.67962735040554
H          -2.52934234187577  -15.01189940524930    2.13190208785898
H          -3.73987501386710  -16.27137973588362    2.48081778483024
H          -3.33214933446712  -17.96472836126663    3.97274157079604
